24
./Backbone_Most_Similar/c6mers/CINYED_fixed_backbone.pdb
C          6.47500       14.25700        5.75400
N          6.33200       13.27100        4.68400
O          5.22500       15.72700        7.11800
C          5.20500       14.99700        6.12800
N          4.13800       14.83800        5.34200
O          1.00100       14.48100        6.75100
C          2.86000       15.49100        5.62500
C          1.74500       14.44900        5.78400
N          1.64600       13.54900        4.77600
O          2.14300       10.95400        3.85500
C          0.57800       12.56000        4.74900
C          1.19100       11.15300        4.58800
N          0.52800       10.19500        5.27500
O          2.68900        8.70900        6.57400
C          0.83500        8.76200        5.07400
C          2.29600        8.48400        5.42500
N          3.08400        7.96500        4.50200
O          6.61900        8.73800        4.78700
C          4.48600        7.66700        4.76200
C          5.41700        8.84400        4.53200
N          4.88400        9.94800        4.03900
O          5.19000       11.86400        6.00300
C          5.65000       11.13900        3.73900
C          5.70600       12.09400        4.92800
