94
4csv_imatinib_conf2.pdb
C         -5.98700        2.06900        1.66500
C         -5.58200        0.78100        2.35200
C         -4.49600        0.13700        1.49600
C         -3.63800        1.28400        1.00700
N         -4.31100        1.87300       -0.12300
C         -5.72700        2.00500        0.17700
C         -3.68500       -0.84900        2.30900
C         -3.00800       -0.19600        3.48300
C         -1.72800       -0.94900        3.78400
N         -1.79800       -2.35200        3.52800
C         -2.24600       -2.68500        2.17600
N         -2.63700       -1.43900        1.50000
N         -1.25200       -3.39000        1.44400
C         -1.62800       -3.90700        0.15300
C         -1.98800       -2.87100       -0.83800
C         -1.58500       -3.14700       -2.26100
C         -0.28800       -3.84500       -2.44200
C          0.44000       -4.11000       -1.15500
C         -0.51200       -4.84500       -0.25200
N          0.98300       -2.94000       -0.51700
C          1.92200       -2.30800       -1.42300
C          2.57900       -1.07700       -0.85300
C          1.56800       -0.02100       -0.50400
C          2.17000        1.20800        0.07900
C          3.62700        1.17800        0.36300
C          4.23800       -0.14600        0.65400
C          3.37600       -1.34800        0.37900
C          4.39900        1.93300       -0.72300
N          4.03600        3.31100       -0.84800
C          4.78800        3.94600       -1.95700
C          4.16400        5.25100       -2.27200
N          3.41500        5.84200       -1.21500
C          1.98700        5.80300       -1.41100
C          3.83200        5.51600        0.10500
C          4.40400        4.13500        0.28800
O          2.88700       -3.20900       -1.81700
C         -3.52000       -2.71900       -0.87800
H         -7.07900        2.24200        1.79100
H         -5.41100        2.93800        2.07000
H         -5.20000        1.07300        3.34700
H         -6.44500        0.09800        2.50100
H         -5.00200       -0.41200        0.68500
H         -2.61800        0.93200        0.76300
H         -3.59000        2.06600        1.79900
H         -4.24000        1.18400       -0.90600
H         -6.32300        1.19500       -0.29600
H         -6.06000        2.96800       -0.25000
H         -4.33300       -1.65600        2.68000
H         -2.69800        0.83100        3.18000
H         -3.67000       -0.12500        4.35400
H         -1.56300       -0.83900        4.88900
H         -0.82900       -0.49000        3.30300
H         -2.32600       -2.86700        4.25800
H         -3.14600       -3.30800        2.27100
H         -1.81800       -0.79800        1.55600
H         -0.41900       -2.76600        1.36800
H         -2.55700       -4.56400        0.30700
H         -1.58500       -1.89500       -0.55300
H         -1.52200       -2.16300       -2.78500
H         -2.44100       -3.66900       -2.75800
H          0.35300       -3.43200       -3.24900
H         -0.55300       -4.87500       -2.83600
H          1.24900       -4.85200       -1.39800
H         -0.98800       -5.67500       -0.85600
H         -0.00800       -5.26200        0.64500
H          1.60000       -3.32500        0.26400
H          1.32500       -1.93100       -2.28900
H          3.26200       -0.70200       -1.63700
H          0.84500       -0.41400        0.25700
H          0.93900        0.14800       -1.40900
H          2.00400        2.02700       -0.68800
H          1.57400        1.59100        0.96000
H          3.76000        1.78000        1.31800
H          4.66700       -0.22600        1.68300
H          5.13800       -0.26900       -0.01900
H          2.74400       -1.51500        1.28000
H          4.02800       -2.24200        0.29300
H          5.49000        1.93400       -0.41700
H          4.39500        1.39600       -1.68600
H          5.81200        4.10800       -1.56200
H          4.89100        3.26400       -2.81700
H          3.51100        5.14600       -3.15900
H          4.98100        5.94500       -2.61300
H          1.71900        6.65100       -2.07500
H          1.41200        5.90500       -0.48900
H          1.72800        4.87100       -1.99100
H          4.54400        6.27500        0.47900
H          2.93800        5.57700        0.77900
H          5.52500        4.26600        0.21800
H          4.20600        3.70800        1.26500
H          3.05200       -3.93500       -1.13700
H         -3.93700       -3.21600       -1.80800
H         -4.00900       -3.26500       -0.05300
H         -3.83100       -1.66700       -0.98900
