94
4csv_imatinib_conf16.pdb
C          3.96700       -3.90500        3.04500
C          3.32300       -3.20300        4.23600
C          3.12200       -1.73700        3.96000
C          4.06500       -1.30800        2.86700
N          5.37000       -1.92400        3.16100
C          5.35100       -3.33300        2.81800
C          1.67500       -1.41100        3.64700
C          1.19200       -2.17800        2.44200
C         -0.25000       -1.78500        2.14000
N         -0.21400       -0.34800        1.90000
C          0.05000        0.22800        3.23400
N          1.46000        0.01100        3.54800
N         -0.30400        1.59200        3.22900
C         -1.67700        1.81300        2.89800
C         -2.70100        1.35600        3.86500
C         -3.90500        2.27200        3.83200
C         -4.30600        2.71600        2.45700
C         -3.14100        3.38800        1.73700
C         -1.90900        3.32000        2.64600
N         -2.84800        2.62400        0.54200
C         -1.82200        3.17400       -0.28000
C         -1.51100        2.37800       -1.52900
C         -2.70200        2.22900       -2.44800
C         -2.24800        1.30700       -3.58900
C         -1.04600        1.82500       -4.30700
C         -0.81200        3.24900       -3.78900
C         -0.50400        3.23400       -2.31300
C          0.21200        1.03500       -4.05800
N          0.09900       -0.32800       -4.45500
C          1.30900       -1.08900       -4.22700
C          1.21300       -2.53100       -4.58000
N          0.40700       -2.80900       -5.72700
C          1.11000       -2.99300       -6.95500
C         -0.81000       -2.07300       -5.79900
C         -0.53900       -0.58700       -5.69800
O         -2.14200        4.47700       -0.73000
C         -3.12200       -0.08800        3.75100
H          4.05600       -4.96200        3.31700
H          3.35000       -3.73200        2.15100
H          2.38800       -3.74800        4.42700
H          3.95900       -3.31400        5.14600
H          3.42300       -1.17100        4.86600
H          3.73700       -1.63800        1.86700
H          4.24300       -0.21400        2.91700
H          6.13700       -1.42000        2.65600
H          5.54300       -3.44900        1.72300
H          6.07000       -3.94900        3.36300
H          1.07000       -1.75200        4.51900
H          1.76000       -1.99700        1.52900
H          1.12100       -3.25000        2.74500
H         -0.87200       -1.94100        3.05500
H         -0.63500       -2.28400        1.24700
H          0.65000       -0.09500        1.33100
H         -0.54000       -0.36300        3.94800
H          2.03900        0.40700        2.75400
H          0.27900        2.15800        2.58700
H         -1.94300        1.32600        1.90400
H         -2.25600        1.50300        4.89500
H         -3.87300        3.12000        4.50700
H         -4.76200        1.61500        4.18600
H         -5.08300        3.49800        2.59000
H         -4.77000        1.91500        1.84700
H         -3.34400        4.43300        1.47700
H         -1.03400        3.82000        2.24100
H         -2.22600        3.75400        3.62300
H         -3.74700        2.62500       -0.01800
H         -0.90600        3.31500        0.32900
H         -1.13200        1.37100       -1.31500
H         -3.49200        1.62100       -1.91600
H         -3.09600        3.18000       -2.80800
H         -2.09200        0.30900       -3.13000
H         -3.08100        1.20600       -4.31200
H         -1.20000        1.96100       -5.40300
H         -1.65100        3.90100       -4.04600
H          0.10100        3.66600       -4.28100
H         -0.57800        4.30300       -1.98600
H          0.52700        2.93500       -2.08900
H          0.56000        1.11600       -3.00900
H          1.03900        1.48100       -4.67500
H          2.15400       -0.57100       -4.76100
H          1.57500       -1.00400       -3.15000
H          2.26200       -2.88200       -4.80900
H          0.89300       -3.18200       -3.73100
H          2.19400       -2.95700       -6.76300
H          0.91800       -4.04600       -7.30500
H          0.79000       -2.33300       -7.78800
H         -1.30600       -2.34400       -6.75500
H         -1.47300       -2.41400       -4.96600
H          0.13600       -0.30300       -6.52100
H         -1.48300       -0.00700       -5.73400
H         -3.13300        4.58200       -0.73200
H         -4.24300       -0.08400        3.82300
H         -2.77600       -0.56000        2.83600
H         -2.76300       -0.63000        4.64300
