94
4csv_imatinib_conf12.pdb
C         -2.66400        4.60300        1.36000
C         -2.61500        3.81100        0.06600
C         -1.18100        3.85500       -0.47900
C         -0.35800        3.14600        0.60000
N         -0.26500        4.09800        1.69100
C         -1.54700        4.22200        2.30700
C         -1.09600        3.09700       -1.76100
C         -2.00300        3.61400       -2.82600
C         -1.78700        2.79600       -4.07900
N         -2.18000        1.43900       -3.73700
C         -1.31800        0.90300       -2.68700
N         -1.32700        1.69500       -1.51100
N         -1.66500       -0.46000       -2.53400
C         -2.99000       -0.80800       -2.15200
C         -3.29000       -2.27600       -2.51800
C         -4.46800       -2.75800       -1.65500
C         -3.84100       -2.89600       -0.27700
C         -3.57800       -1.55500        0.24200
C         -3.41600       -0.47300       -0.77600
N         -2.61600       -1.40900        1.26800
C         -1.29400       -1.79500        1.15800
C         -0.62500       -1.59200        2.52500
C          0.83000       -2.01800        2.39400
C          1.57700       -1.80900        3.67200
C          1.32900       -0.59100        4.43600
C          0.14400        0.23400        4.06800
C         -0.54000       -0.11500        2.79200
C          2.53300        0.28800        4.57800
N          3.14500        0.84200        3.45700
C          3.87800        0.11300        2.51900
C          5.12500       -0.46300        3.17200
N          5.77600        0.48500        4.01800
C          6.49400       -0.00800        5.12700
C          5.33100        1.81200        4.01800
C          3.88300        2.07300        3.74900
O         -0.47900       -1.25600        0.21700
C         -3.73300       -2.38400       -3.95700
H         -3.62300        4.32600        1.84400
H         -2.58700        5.67100        1.13600
H         -2.82800        2.74800        0.28400
H         -3.29900        4.26700       -0.64600
H         -0.79500        4.88500       -0.54200
H          0.58800        2.75100        0.24500
H         -0.95400        2.28700        1.02200
H         -0.00000        5.02400        1.24500
H         -1.47600        5.04700        3.06800
H         -1.77000        3.25100        2.83600
H         -0.04400        3.22000       -2.16300
H         -1.79200        4.67400       -3.07300
H         -3.07500        3.45500       -2.54500
H         -0.74200        2.83600       -4.44300
H         -2.50800        3.16100       -4.83700
H         -1.91800        0.86700       -4.59600
H         -0.26000        0.93900       -3.10400
H         -0.53400        1.37600       -0.89200
H         -1.30400       -0.99100       -3.35400
H         -3.66300       -0.24400       -2.87000
H         -2.38600       -2.87600       -2.33400
H         -5.28400       -2.02800       -1.70100
H         -4.73300       -3.76900       -1.98900
H         -4.57800       -3.43400        0.35600
H         -2.94500       -3.52400       -0.48300
H         -4.56600       -1.27700        0.77800
H         -4.37500        0.14400       -0.87300
H         -2.70500        0.31300       -0.38700
H         -2.98000       -1.72000        2.20100
H         -1.26100       -2.91500        1.00000
H         -1.09900       -2.17900        3.32200
H          1.23800       -1.43700        1.54900
H          0.91200       -3.07900        2.09700
H          1.24900       -2.73900        4.29300
H          2.63500       -2.07300        3.49500
H          1.13200       -0.92600        5.51600
H         -0.63000        0.21000        4.86100
H          0.44900        1.29800        3.99000
H         -1.56100        0.30700        2.75000
H          0.01200        0.30400        1.92400
H          2.33800        1.11700        5.32600
H          3.36100       -0.29300        5.13400
H          3.38100       -0.64700        1.91900
H          4.26800        0.85600        1.74700
H          5.81900       -0.72600        2.34400
H          4.89800       -1.40000        3.71000
H          6.70400        0.86000        5.80100
H          7.52100       -0.35500        4.82000
H          6.02800       -0.82100        5.71100
H          5.56400        2.26400        5.02800
H          6.00000        2.39300        3.31500
H          3.34400        2.54700        4.59500
H          3.79300        2.75900        2.88300
H          0.20700       -1.85900       -0.16100
H         -3.48500       -3.38600       -4.36500
H         -3.26700       -1.55400       -4.51600
H         -4.83800       -2.20300       -3.97800
