94
4csv_imatinib_conf46.pdb
C         -1.09600        3.27900       -8.70300
C         -1.21500        1.78900       -8.51700
C         -0.90200        1.37500       -7.11100
C         -1.83100        2.08400       -6.16400
N         -2.12500        3.43600       -6.57700
C         -1.06100        3.99800       -7.38600
C         -1.08400       -0.13800       -6.96900
C         -0.17000       -0.90500       -7.88600
C         -0.50100       -2.37300       -7.72700
N         -0.61500       -2.78400       -6.37300
C         -0.24300       -1.77700       -5.40600
N         -0.76700       -0.48500       -5.60900
N         -0.52300       -2.27600       -4.09400
C         -0.29400       -1.40900       -3.01600
C         -1.48400       -0.71700       -2.40700
C         -0.90300        0.54500       -1.75200
C          0.39900        0.32200       -1.09300
C          0.87500       -1.04800       -0.84600
C          0.38100       -2.08700       -1.82800
N          0.77600       -1.58000        0.46400
C         -0.47800       -1.66000        1.09700
C         -0.42600       -2.30900        2.46500
C         -1.77300       -2.33900        3.05500
C         -1.87400       -2.09700        4.52100
C         -0.77800       -1.31800        5.15100
C          0.53500       -1.95000        4.74800
C          0.65000       -1.67300        3.26000
C         -0.96500       -1.30700        6.64700
N          0.01600       -0.60200        7.36900
C          0.09700        0.79400        7.24900
C          1.43700        1.32800        6.85200
N          2.56900        0.56600        7.17000
C          3.74400        1.32000        7.51900
C          2.45300       -0.68500        7.79900
C          1.11300       -1.30600        7.90800
O         -1.00800       -0.38500        1.27700
C         -2.61700       -0.41800       -3.30800
H         -2.03900        3.61700       -9.22500
H         -0.24600        3.57900       -9.35900
H         -2.25600        1.43100       -8.72000
H         -0.47700        1.34600       -9.24700
H          0.16600        1.64900       -6.92600
H         -2.78400        1.52700       -6.17100
H         -1.39200        2.17000       -5.14600
H         -2.27200        4.07500       -5.76400
H         -0.07200        3.98400       -6.89600
H         -1.31700        5.08300       -7.52200
H         -2.12300       -0.43500       -7.15600
H          0.88600       -0.76900       -7.61300
H         -0.38600       -0.64400       -8.96300
H          0.23000       -2.97000       -8.31200
H         -1.49800       -2.53000       -8.22200
H         -1.40600       -3.38000       -6.11700
H          0.89900       -1.75000       -5.46900
H         -0.06200        0.22500       -5.26100
H         -0.21300       -3.26500       -3.95400
H          0.48000       -0.62200       -3.31800
H         -1.88800       -1.39200       -1.60300
H         -0.86600        1.28700       -2.57900
H         -1.68500        0.98500       -1.06300
H          0.38000        0.87300       -0.10500
H          1.16000        0.93600       -1.66800
H          1.99700       -1.02900       -1.05200
H          1.17000       -2.73400       -2.24600
H         -0.38600       -2.76000       -1.38500
H          1.44700       -1.13600        1.15600
H         -1.25000       -2.23600        0.54700
H         -0.05900       -3.35900        2.24700
H         -2.22900       -3.34000        2.85400
H         -2.46700       -1.61700        2.54800
H         -2.84000       -1.59800        4.80100
H         -1.92200       -3.08400        5.07000
H         -0.79500       -0.30000        4.71400
H          0.52600       -3.02200        4.97300
H          1.34200       -1.39300        5.23000
H          0.67100       -0.56900        3.14100
H          1.65400       -2.04400        2.96700
H         -0.97300       -2.36900        6.98900
H         -1.97100       -0.90900        6.89100
H         -0.65200        1.14900        6.50400
H         -0.23600        1.24600        8.22500
H          1.54300        2.33100        7.36600
H          1.46700        1.60900        5.75500
H          4.18500        1.66400        6.55600
H          3.53800        2.23100        8.11700
H          4.51600        0.67600        7.98100
H          2.85600       -0.55200        8.85000
H          3.18200       -1.44900        7.38100
H          1.12400       -2.32600        7.42800
H          0.88000       -1.52000        8.99600
H         -1.95400       -0.30800        1.02800
H         -2.58700        0.55800       -3.83300
H         -3.55100       -0.35500       -2.65400
H         -2.82200       -1.27300       -3.96000
