94
4csv_imatinib_conf18.pdb
C         -3.05200       -2.99500        2.14600
C         -2.31200       -1.68200        2.40000
C         -3.33800       -0.72600        3.01900
C         -3.58200       -1.24000        4.39900
N         -3.15600       -2.63400        4.56100
C         -3.68300       -3.41800        3.45600
C         -2.91800        0.69500        2.91400
C         -3.89400        1.69000        3.50900
C         -3.51000        3.05600        2.93100
N         -2.08900        3.13600        2.66300
C         -1.41300        2.35900        3.68300
N         -1.60000        0.93700        3.49100
N         -0.04800        2.77000        3.83500
C          0.77800        2.66100        2.68100
C          2.19800        3.15100        2.93200
C          2.72800        3.58100        1.56100
C          2.16800        2.58900        0.53700
C          2.08700        1.21600        1.20800
C          0.93300        1.21000        2.19400
N          1.80000        0.25100        0.18300
C          1.84300       -1.06800        0.63700
C          1.54600       -2.13300       -0.39900
C          0.17900       -1.99700       -0.98900
C         -0.07900       -2.89500       -2.16200
C          0.97800       -2.94900       -3.16500
C          2.21400       -2.13800       -2.83300
C          2.64100       -2.27500       -1.40600
C          0.54700       -2.53000       -4.53200
N          0.06400       -1.21500       -4.73200
C         -1.21200       -0.87200       -4.20700
C         -1.84100        0.28500       -4.99400
N         -0.83600        1.22800       -5.41300
C         -0.04600        1.72200       -4.30100
C         -0.00500        0.57900       -6.40900
C          0.09300       -0.90600       -6.14800
O          0.94300       -1.26100        1.68100
C          2.22100        4.29000        3.92200
H         -3.81100       -2.87000        1.34800
H         -2.32400       -3.77800        1.85000
H         -2.05300       -1.28200        1.40000
H         -1.47600       -1.91000        3.05700
H         -4.26600       -0.92800        2.42900
H         -4.68500       -1.25000        4.64200
H         -3.13600       -0.64400        5.21500
H         -3.62900       -2.97500        5.42700
H         -4.79000       -3.37900        3.42600
H         -3.42400       -4.48500        3.68200
H         -2.91700        0.94800        1.81500
H         -4.89600        1.45800        3.05200
H         -3.90500        1.71400        4.60200
H         -3.74700        3.82600        3.69200
H         -4.10400        3.30200        2.02600
H         -1.84600        2.82400        1.69900
H         -1.92700        2.63200        4.63200
H         -1.60500        0.44200        4.41300
H          0.40100        2.36700        4.68500
H          0.35500        3.27500        1.88800
H          2.76700        2.31000        3.34300
H          2.29200        4.57000        1.32400
H          3.82900        3.54900        1.53700
H          1.22500        2.90300        0.09500
H          2.92600        2.51000       -0.27200
H          3.01600        1.06400        1.75200
H          0.00700        0.85100        1.74100
H          1.17200        0.57800        3.06400
H          1.01800        0.58500       -0.36300
H          2.84300       -1.33300        1.05100
H          1.53200       -3.08000        0.18200
H         -0.59400       -2.27000       -0.22200
H          0.02000       -0.95000       -1.25100
H         -0.11500       -3.94200       -1.67900
H         -1.12500       -2.78300       -2.48800
H          1.34400       -4.02500       -3.28800
H          3.02900       -2.55300       -3.46300
H          2.07900       -1.09600       -3.18700
H          3.23100       -3.20800       -1.28800
H          3.36700       -1.43900       -1.20500
H          1.35900       -2.79100       -5.29800
H         -0.29600       -3.21700       -4.90400
H         -1.25800       -0.55300       -3.16500
H         -1.90400       -1.74500       -4.41200
H         -2.55200        0.80200       -4.32500
H         -2.40000       -0.05500       -5.87500
H         -0.21500        2.80700       -4.14800
H          1.02800        1.62500       -4.61000
H         -0.22500        1.19000       -3.35300
H          0.96100        1.08500       -6.47500
H         -0.49800        0.70600       -7.40100
H          0.99600       -1.30600       -6.65300
H         -0.79100       -1.38500       -6.61600
H          0.94600       -2.16000        2.05400
H          2.97100        5.03900        3.56300
H          1.27000        4.84700        3.98500
H          2.58300        3.94000        4.90600
