94
4csv_imatinib_conf37.pdb
C         -5.80200        3.70800       -1.40200
C         -5.32300        3.45000       -2.81900
C         -3.90300        3.84700       -3.03900
C         -3.24800        4.05600       -1.69100
N         -3.57400        2.93400       -0.85700
C         -4.94800        2.97300       -0.39000
C         -3.12900        2.77300       -3.75900
C         -3.73400        2.46600       -5.12700
C         -2.62200        1.68500       -5.84300
N         -1.91500        0.97900       -4.79000
C         -0.96200        1.90100       -4.14200
N         -1.76800        3.15000       -4.00200
N         -0.63500        1.51600       -2.83400
C         -0.06000        0.27300       -2.53200
C          1.35100        0.12100       -2.95300
C          1.89900       -1.27600       -2.66500
C          1.10700       -1.87700       -1.53300
C          0.92100       -0.80300       -0.49900
C         -0.10100        0.16700       -0.99100
N          0.76000       -1.27300        0.82300
C         -0.29700       -2.15900        1.10800
C         -0.31300       -2.54900        2.59300
C          0.97000       -3.21300        2.94100
C          1.21600       -3.29200        4.42800
C          1.24300       -1.88000        4.95300
C         -0.01600       -1.11100        4.67900
C         -0.80000       -1.48300        3.48800
C          2.43700       -1.10600        4.43600
N          3.70300       -1.66300        4.78200
C          4.73000       -0.81300        4.20500
C          5.76200       -0.35200        5.17600
N          6.36100       -1.53200        5.76600
C          6.79200       -2.39000        4.65800
C          5.32900       -2.20600        6.49800
C          3.93500       -1.68800        6.21300
O         -1.55600       -1.80800        0.70000
C          1.66400        0.39100       -4.39000
H         -6.84300        3.41200       -1.28800
H         -5.68200        4.79200       -1.20500
H         -5.56800        2.40900       -3.14400
H         -5.94700        4.09800       -3.47800
H         -3.81600        4.82500       -3.59200
H         -3.53300        5.03000       -1.24700
H         -2.14400        4.08500       -1.78500
H         -2.89000        2.70900       -0.12100
H         -4.95600        3.57400        0.54200
H         -5.35000        1.98000       -0.14200
H         -3.15000        1.85200       -3.17700
H         -3.94800        3.41200       -5.67000
H         -4.59600        1.77700       -5.06600
H         -1.93400        2.36400       -6.38000
H         -3.04300        0.99600       -6.59600
H         -1.45900        0.12300       -5.15100
H         -0.17500        2.07600       -4.86800
H         -1.62100        3.69500       -4.87100
H         -1.37900        1.80400       -2.16500
H         -0.66700       -0.56600       -2.96700
H          1.98100        0.86400       -2.36800
H          1.87900       -1.90300       -3.57900
H          2.95400       -1.15500       -2.34700
H          0.10300       -2.13700       -1.93300
H          1.58500       -2.79100       -1.12400
H          1.90000       -0.22400       -0.50200
H         -1.13200       -0.01700       -0.69700
H          0.16300        1.19300       -0.60200
H          0.85300       -0.45800        1.46600
H         -0.06100       -3.13400        0.58800
H         -1.08000       -3.38300        2.59400
H          1.79000       -2.67100        2.44900
H          1.00600       -4.26300        2.57000
H          2.20000       -3.74200        4.58200
H          0.42800       -3.84300        4.93900
H          1.40000       -1.97600        6.04900
H          0.28900       -0.02300        4.71600
H         -0.66200       -1.19700        5.58800
H         -0.85800       -0.55100        2.84800
H         -1.89200       -1.63300        3.75000
H          2.37800       -0.10900        4.96300
H          2.35900       -0.86200        3.37200
H          4.28500        0.11500        3.74600
H          5.19600       -1.34500        3.36700
H          5.40900        0.37800        5.90500
H          6.56600        0.14200        4.58200
H          5.92100       -2.99100        4.32500
H          7.64200       -2.99400        4.99400
H          7.14800       -1.74500        3.82800
H          5.50200       -1.99900        7.59600
H          5.33000       -3.29900        6.36300
H          3.25100       -2.40200        6.74200
H          3.75600       -0.69600        6.67000
H         -1.89500       -2.32000       -0.09100
H          0.92100        0.02200       -5.11200
H          2.02600        1.42700       -4.57000
H          2.59300       -0.22700       -4.64400
