94
4csv_imatinib_conf14.pdb
C         -0.79400        2.50700        2.52300
C         -1.66800        1.73300        1.56400
C         -3.07500        2.33200        1.69500
C         -3.00700        3.67200        1.04300
N         -1.66500        4.26600        1.18400
C         -1.13000        3.98400        2.48000
C         -4.10400        1.38800        1.06300
C         -5.50900        1.91500        1.18200
C         -5.84400        2.77100        0.02900
N         -5.33400        2.43500       -1.23800
C         -4.35100        1.43000       -1.36900
N         -3.72000        0.92400       -0.21500
N         -3.33800        1.99100       -2.28700
C         -2.29200        1.04500       -2.60700
C         -2.79000       -0.12100       -3.41700
C         -2.10000       -0.04400       -4.78000
C         -0.61800       -0.28300       -4.48700
C         -0.04700        0.81200       -3.66300
C         -1.12000        1.76300       -3.21300
N          0.67700        0.38100       -2.48000
C          1.85300       -0.36400       -2.77700
C          2.52700       -0.89900       -1.54500
C          2.94900        0.18600       -0.63500
C          2.40900        0.06200        0.76800
C          2.48500       -1.25600        1.40900
C          2.12000       -2.35900        0.44200
C          1.63200       -1.92100       -0.88700
C          3.63200       -1.61600        2.27400
N          4.94800       -1.61500        1.74900
C          5.83200       -2.35000        2.72000
C          7.06500       -2.67100        1.96000
N          7.44700       -1.77700        0.92500
C          7.60800       -2.37800       -0.37800
C          6.87000       -0.48600        0.90300
C          5.61600       -0.32500        1.71700
O          1.66300       -1.40300       -3.70300
C         -2.40800       -1.45000       -2.80700
H          0.25100        2.42400        2.12400
H         -0.80600        2.07500        3.52400
H         -1.27400        1.87500        0.53600
H         -1.63700        0.67200        1.84700
H         -3.28100        2.39000        2.78300
H         -3.20200        3.68800       -0.02600
H         -3.66900        4.37700        1.60300
H         -1.79500        5.29300        1.06900
H         -1.79700        4.25600        3.32600
H         -0.19800        4.60700        2.57900
H         -4.10000        0.51000        1.80100
H         -6.21800        1.07400        1.34800
H         -5.50800        2.55700        2.11400
H         -5.57000        3.83400        0.26500
H         -6.97600        2.79500       -0.03900
H         -5.24300        3.23300       -1.90500
H         -4.82300        0.58600       -1.94900
H         -3.73500       -0.11900       -0.23200
H         -3.88000        2.12900       -3.18500
H         -1.89400        0.63100       -1.63100
H         -3.89600       -0.12900       -3.56600
H         -2.27300        0.90500       -5.28900
H         -2.44700       -0.84500       -5.45900
H         -0.60900       -1.29300       -4.02900
H         -0.09100       -0.41200       -5.46600
H          0.64200        1.41000       -4.33100
H         -0.65900        2.35700       -2.36900
H         -1.41600        2.48200       -4.00200
H          0.94900        1.27100       -2.00900
H          2.56700        0.33200       -3.33000
H          3.40500       -1.49500       -1.92800
H          2.65200        1.22200       -0.96300
H          4.05400        0.21800       -0.63800
H          1.28100        0.30600        0.70000
H          2.77400        0.91500        1.37200
H          1.59000       -1.26700        2.14700
H          1.38900       -3.02200        0.93300
H          3.04900       -3.00500        0.36000
H          0.62100       -1.52600       -0.82300
H          1.61200       -2.80900       -1.55100
H          3.38100       -2.63800        2.70600
H          3.67000       -0.98100        3.21700
H          5.30700       -3.23500        3.09500
H          5.97100       -1.66100        3.57300
H          7.88800       -2.86600        2.68400
H          6.90900       -3.67700        1.46800
H          7.65300       -3.47900       -0.26200
H          6.84800       -2.03800       -1.10800
H          8.61400       -2.05900       -0.76000
H          6.58600       -0.23800       -0.15600
H          7.59200        0.30000        1.20700
H          5.02800        0.52900        1.44800
H          5.97600       -0.12600        2.77100
H          2.55100       -1.80600       -3.85100
H         -3.19200       -1.77700       -2.06100
H         -1.48200       -1.37300       -2.20500
H         -2.34700       -2.25200       -3.56000
