94
4csv_imatinib_conf15.pdb
C         -3.26500       -4.68700       -3.92100
C         -3.68600       -4.61800       -2.46600
C         -3.88700       -3.15300       -2.14300
C         -5.13300       -2.67700       -2.80600
N         -5.14200       -3.11900       -4.18600
C         -3.82800       -3.48300       -4.68100
C         -3.81300       -2.86800       -0.68100
C         -4.82200       -3.57600        0.16200
C         -4.68300       -3.15000        1.59600
N         -4.83400       -1.69400        1.72200
C         -3.78400       -1.14800        0.88300
N         -4.03200       -1.43600       -0.48900
N         -3.39600        0.19500        1.21200
C         -2.40600        0.65200        0.30700
C         -2.84700        1.57100       -0.78900
C         -1.78600        1.51900       -1.86400
C         -0.42000        1.14400       -1.41700
C         -0.06500        1.18900        0.00600
C         -1.23700        1.39000        0.95400
N          1.06000        2.00200        0.38200
C          0.97800        3.39600        0.17000
C          2.30900        4.01900        0.57700
C          2.67200        3.79000        1.99300
C          3.81100        2.80700        2.22500
C          5.04600        3.11800        1.45300
C          4.77700        3.97400        0.22800
C          3.42500        3.67100       -0.38000
C          5.96500        1.98500        1.14200
N          6.56200        1.27900        2.18000
C          5.88000        0.42000        3.04900
C          5.57000       -0.94100        2.43400
N          6.80000       -1.54400        1.95200
C          6.48500       -2.80900        1.32300
C          7.37800       -0.63600        0.98200
C          7.80600        0.60800        1.76800
O          0.57600        3.82900       -1.06500
C         -4.23100        1.39900       -1.29300
H         -3.62300       -5.63200       -4.40300
H         -2.16300       -4.64000       -4.03400
H         -2.92500       -5.07200       -1.79400
H         -4.62400       -5.17100       -2.35700
H         -3.02500       -2.59600       -2.61200
H         -5.27500       -1.58000       -2.73900
H         -6.00000       -3.14100       -2.30600
H         -5.44500       -2.31200       -4.78300
H         -3.12000       -2.63400       -4.71500
H         -3.97800       -3.82200       -5.72500
H         -2.77800       -3.11000       -0.35100
H         -5.83000       -3.29600       -0.18400
H         -4.72700       -4.68200        0.11900
H         -3.62300       -3.35900        1.90300
H         -5.36600       -3.69300        2.27400
H         -5.78900       -1.44800        1.34000
H         -2.86700       -1.77600        1.16000
H         -5.05800       -1.30500       -0.73100
H         -3.03200        0.17100        2.19400
H         -1.92600       -0.23900       -0.23400
H         -2.81400        2.63200       -0.36500
H         -2.19500        0.82700       -2.63000
H         -1.82000        2.51500       -2.38000
H         -0.23700        0.10400       -1.84400
H          0.31100        1.74600       -1.99900
H          0.28400        0.15100        0.31600
H         -1.45800        2.48100        0.97600
H         -0.99300        1.01900        1.95100
H          1.22400        1.80900        1.41300
H          0.18800        3.78000        0.88800
H          2.17200        5.14000        0.45700
H          1.81000        3.40900        2.58000
H          3.03300        4.74300        2.47800
H          3.48800        1.77100        2.03000
H          3.97300        2.87800        3.34300
H          5.63600        3.82600        2.12900
H          5.54100        3.73900       -0.53600
H          4.85700        5.05500        0.45400
H          3.38800        2.62200       -0.69500
H          3.36500        4.28700       -1.31400
H          5.43100        1.21300        0.48000
H          6.81100        2.35100        0.46000
H          4.98500        0.83200        3.48500
H          6.62700        0.17200        3.89100
H          4.84500       -0.82400        1.63000
H          5.16400       -1.57100        3.25100
H          7.42500       -3.39000        1.25200
H          6.04000       -2.62700        0.30600
H          5.76700       -3.36300        1.93500
H          6.65300       -0.41000        0.18700
H          8.29900       -1.10800        0.56400
H          8.48000        1.24600        1.21000
H          8.26800        0.23200        2.70000
H         -0.29000        4.27500       -1.09200
H         -4.34800        0.73000       -2.17000
H         -4.59200        2.40500       -1.68200
H         -4.90500        1.19200       -0.45100
