94
4csv_imatinib_conf40.pdb
C          2.35600        5.30700        0.62500
C          3.48900        4.64900       -0.09400
C          3.77700        3.27900        0.42600
C          4.04400        3.43400        1.92900
N          2.92300        4.07200        2.58200
C          2.72800        5.42900        2.09400
C          2.63900        2.31000        0.27200
C          2.23400        2.12100       -1.15700
C          0.97400        1.28700       -1.24500
N          0.94900        0.47100       -0.01500
C          2.28200        0.00100        0.18200
N          3.09000        1.02900        0.83100
N          2.44000       -1.28000        0.77600
C          1.80000       -2.32900        0.06000
C          2.46800       -3.68700        0.34800
C          1.98600       -4.21400        1.64300
C          0.48700       -4.41200        1.56000
C         -0.18200       -3.00400        1.50500
C          0.31400       -2.42700        0.21900
N          0.13500       -2.39700        2.70900
C         -0.30800       -1.14600        3.12500
C         -1.79200       -0.96100        3.33200
C         -2.66300       -1.17800        2.16400
C         -3.84400       -0.19800        2.12600
C         -3.35100        1.20800        1.85900
C         -2.26400        1.47700        2.86900
C         -2.09200        0.40700        3.89700
C         -2.71600        1.33900        0.50300
N         -3.55300        1.03500       -0.60500
C         -4.62500        1.92900       -0.87400
C         -4.34500        2.90800       -1.98600
N         -2.94300        2.88800       -2.39100
C         -2.80900        3.75200       -3.54900
C         -2.71000        1.51600       -2.86600
C         -2.80200        0.55900       -1.70500
O          0.21800       -0.97200        4.44500
C          2.30100       -4.62500       -0.81000
H          1.41900        4.73200        0.57000
H          2.13600        6.29900        0.18100
H          4.41200        5.26000        0.09800
H          3.38100        4.66300       -1.20100
H          4.73700        2.91500        0.00600
H          4.95100        4.09000        2.07500
H          4.17800        2.44500        2.39900
H          3.05800        4.01500        3.59600
H          1.84500        5.84000        2.62100
H          3.62400        6.05300        2.18600
H          1.79000        2.72500        0.84800
H          3.06000        1.69300       -1.76400
H          1.98800        3.08800       -1.63600
H          0.07300        1.88300       -1.37000
H          1.12600        0.57700       -2.08200
H          0.61300        1.09000        0.76700
H          2.75700       -0.08900       -0.85000
H          2.81100        1.03100        1.84000
H          3.45200       -1.45800        0.92700
H          1.97900       -2.17300       -1.04000
H          3.56100       -3.44000        0.43900
H          2.41500       -5.19600        1.85800
H          2.20700       -3.51100        2.45000
H          0.14200       -4.84500        2.51600
H          0.19900       -5.00000        0.68700
H         -1.24600       -3.27900        1.36100
H         -0.16700       -1.52800       -0.14000
H          0.01400       -3.21000       -0.55900
H         -0.06500       -3.09400        3.48800
H          0.12500       -0.26800        2.60300
H         -2.05500       -1.68300        4.16200
H         -3.14900       -2.17600        2.24400
H         -2.20600       -1.10200        1.18200
H         -4.30900       -0.19800        3.12800
H         -4.55500       -0.58000        1.39000
H         -4.20100        1.88600        2.00000
H         -1.28100        1.70100        2.40900
H         -2.52900        2.41100        3.43800
H         -1.21000        0.70500        4.51500
H         -2.95200        0.33500        4.59000
H         -2.40900        2.42000        0.38200
H         -1.79400        0.73400        0.41100
H         -4.84300        2.52500        0.03700
H         -5.56800        1.36200       -1.09800
H         -4.58700        3.95300       -1.74000
H         -4.93800        2.61500       -2.87500
H         -3.09600        3.23400       -4.50100
H         -3.49500        4.63800       -3.51300
H         -1.78900        4.17600       -3.63900
H         -3.44000        1.22400       -3.63900
H         -1.69700        1.47100       -3.34000
H         -1.75800        0.33000       -1.39700
H         -3.18800       -0.41400       -2.11600
H         -0.10400       -1.75100        4.95900
H          1.63200       -4.25900       -1.61300
H          3.28000       -4.81600       -1.34100
H          1.95800       -5.62600       -0.45500
