94
4csv_imatinib_conf11.pdb
C         -1.72000       -3.70400        0.86200
C         -1.56000       -4.91300       -0.01300
C         -2.03400       -4.68700       -1.41600
C         -3.48100       -4.27900       -1.33700
N         -3.61500       -3.08300       -0.62000
C         -2.81400       -2.79300        0.48800
C         -1.21100       -3.67300       -2.18700
C          0.21500       -4.21200       -2.19400
C          1.04100       -3.57300       -3.26300
N          0.32300       -3.45700       -4.51300
C         -0.91200       -2.65900       -4.32200
N         -1.77900       -3.50200       -3.48400
N         -0.65500       -1.45400       -3.62400
C         -1.63000       -0.39700       -3.75100
C         -3.00700       -0.65300       -3.33900
C         -3.62000        0.16900       -2.26000
C         -2.97400        1.51900       -2.02600
C         -1.51300        1.20300       -1.82700
C         -1.00100        0.85500       -3.20400
N         -0.74100        2.16100       -1.12900
C         -0.58700        3.44800       -1.63500
C          0.22500        4.35300       -0.73000
C         -0.38500        4.52600        0.62400
C          0.10300        3.53000        1.65300
C          1.58700        3.58000        1.80600
C          2.18600        4.47100        0.75500
C          1.65800        3.94900       -0.58700
C          2.03300        3.95600        3.18800
N          1.56100        3.02200        4.17500
C          2.18700        1.72100        4.04700
C          1.83700        0.89500        5.28600
N          0.61700        1.44100        5.85900
C          0.06900        0.52800        6.85000
C          0.93400        2.72400        6.46200
C          1.84700        3.48700        5.53100
O         -1.71400        4.13700       -1.98800
C         -3.90400       -0.61200       -4.60900
H         -0.74000       -3.15200        0.77800
H         -1.76800       -4.04500        1.91500
H         -2.15300       -5.77400        0.37300
H         -0.51300       -5.28000       -0.05900
H         -1.98200       -5.68500       -1.94100
H         -4.08200       -5.07400       -0.85100
H         -3.82300       -4.09500       -2.38700
H         -4.58100       -2.71000       -0.54200
H         -3.49400       -2.68300        1.38500
H         -2.42800       -1.73900        0.35300
H         -1.21100       -2.73200       -1.63300
H          0.68100       -3.94700       -1.20900
H          0.23800       -5.31400       -2.30100
H          1.92500       -4.21300       -3.45400
H          1.42600       -2.57900       -2.99400
H         -0.05900       -4.42200       -4.74600
H         -1.33500       -2.56000       -5.33800
H         -2.06700       -4.36000       -3.96900
H          0.24100       -1.05800       -3.98600
H         -1.65100       -0.21000       -4.88700
H         -3.16500       -1.72100       -3.00200
H         -4.70100        0.27400       -2.50500
H         -3.49200       -0.37900       -1.29000
H         -3.15400        2.08800       -2.97700
H         -3.47300        1.95300       -1.15800
H         -1.46400        0.26900       -1.23000
H          0.10500        0.77800       -3.23900
H         -1.24900        1.74600       -3.84700
H          0.16400        1.71100       -0.87400
H          0.03300        3.37500       -2.57800
H          0.19900        5.38000       -1.21900
H         -1.48300        4.61100        0.61100
H         -0.03900        5.52900        1.01400
H         -0.44100        3.72800        2.60200
H         -0.24200        2.52200        1.33600
H          1.99700        2.55400        1.60700
H          1.99800        5.54000        0.88600
H          3.29400        4.35400        0.74700
H          2.29200        4.37900       -1.39200
H          1.77500        2.85300       -0.53000
H          1.76800        4.99000        3.45300
H          3.14700        3.90500        3.22000
H          3.31200        1.79100        4.01600
H          1.84500        1.20900        3.13600
H          2.67300        0.91300        6.03400
H          1.70200       -0.16800        5.00600
H         -0.90400        0.13500        6.49500
H         -0.08800        1.04900        7.82400
H          0.75100       -0.32600        6.96400
H          1.39300        2.57700        7.46500
H          0.03100        3.34200        6.62400
H          2.92200        3.24600        5.77000
H          1.65100        4.57000        5.65900
H         -1.43700        5.05800       -2.26900
H         -3.26600       -1.04600       -5.41100
H         -4.77700       -1.25700       -4.49400
H         -4.11600        0.43100       -4.90100
