94
4csv_imatinib_conf32.pdb
C          1.94900       -2.52400        3.00300
C          1.51500       -1.93200        1.67100
C          0.62700       -2.89000        0.89200
C          1.26000       -4.23900        0.92700
N          2.62000       -4.19900        1.45900
C          2.60400       -3.87100        2.85900
C         -0.74900       -2.83700        1.54900
C         -1.72300       -3.74900        0.89100
C         -2.59100       -2.97500       -0.07900
N         -3.26900       -1.98300        0.72700
C         -2.34200       -0.99100        1.24600
N         -1.11200       -1.49600        1.73000
N         -2.18200        0.10300        0.31100
C         -3.40300        0.77600       -0.04500
C         -4.06400        1.43300        1.15100
C         -3.02900        2.35700        1.72100
C         -2.66800        3.38000        0.70800
C         -2.31600        2.95400       -0.65200
C         -3.17100        1.80500       -1.13800
N         -0.96200        2.64200       -0.96200
C          0.03800        3.59500       -0.65800
C          1.35300        3.20900       -1.27600
C          1.79100        1.85200       -0.77400
C          3.15000        1.49800       -1.34500
C          3.21000        1.57300       -2.80800
C          2.84800        3.03500       -3.17800
C          1.44400        3.36600       -2.75400
C          2.38000        0.72700       -3.67600
N          2.43700       -0.65800       -3.66900
C          1.90000       -1.41100       -2.60300
C          0.42600       -1.71800       -2.88400
N         -0.02600       -1.14000       -4.11300
C         -1.41900       -1.41700       -4.29000
C          0.77300       -1.55800       -5.24900
C          2.23300       -1.33500       -4.92200
O          0.29900        3.73100        0.70800
C         -5.32700        2.13700        0.69400
H          1.12100       -2.55900        3.72700
H          2.70900       -1.83800        3.42000
H          2.44100       -1.68500        1.09500
H          0.95000       -1.00700        1.91600
H          0.52000       -2.46400       -0.11100
H          1.38200       -4.57600       -0.14000
H          0.72200       -5.02000        1.46400
H          3.26300       -3.61200        0.88500
H          3.63400       -3.89800        3.24900
H          2.05800       -4.68500        3.37700
H         -0.55900       -3.29400        2.57200
H         -1.21800       -4.54700        0.35000
H         -2.40900       -4.16700        1.66100
H         -3.38500       -3.67400       -0.42600
H         -2.05300       -2.57400       -0.93600
H         -3.72100       -2.46900        1.51300
H         -2.87400       -0.57700        2.14400
H         -0.91200       -1.17400        2.69000
H         -1.77600       -0.30500       -0.55500
H         -4.11100        0.02900       -0.44200
H         -4.31100        0.65600        1.88300
H         -2.19400        1.72500        2.06300
H         -3.52300        2.89600        2.56900
H         -1.92500        4.13300        1.11100
H         -3.59500        4.04100        0.62600
H         -2.59100        3.81200       -1.34800
H         -4.15600        2.13900       -1.51000
H         -2.65800        1.31700       -1.96700
H         -0.93500        2.45400       -1.99000
H         -0.20400        4.62400       -1.01800
H          2.16200        3.90800       -0.87200
H          1.90700        1.93900        0.32600
H          1.11000        1.03400       -0.98300
H          3.89100        2.27200       -0.96100
H          3.47100        0.53100       -0.94800
H          4.30600        1.52400       -3.09900
H          3.05100        3.16800       -4.25100
H          3.52100        3.64800       -2.55000
H          1.35300        4.48600       -2.93500
H          0.64700        2.93200       -3.34900
H          1.30300        1.06000       -3.54600
H          2.61800        1.07100       -4.74900
H          2.41100       -2.43100       -2.64900
H          2.04300       -1.07400       -1.58500
H          0.20400       -2.78700       -2.75000
H         -0.14800       -1.19800       -2.06700
H         -1.68400       -1.90600       -5.24400
H         -1.82100       -2.03100       -3.46600
H         -1.96100       -0.43200       -4.19500
H          0.50700       -0.90500       -6.09900
H          0.54800       -2.60300       -5.54700
H          2.66300       -2.36500       -4.78700
H          2.78000       -0.90400       -5.77300
H          0.89800        4.50100        0.85000
H         -5.83400        2.50400        1.62300
H         -5.17400        2.97400        0.02500
H         -5.97900        1.33600        0.26500
