94
4csv_imatinib_conf30.pdb
C         -1.65600       -2.24100        2.88800
C         -1.94600       -0.80600        2.49800
C         -0.92800        0.06300        3.16700
C          0.45400       -0.36300        2.75500
N          0.63900       -1.71000        3.31200
C         -0.20900       -2.59400        2.53800
C         -1.18400        1.52200        3.11800
C         -2.49300        1.82000        3.83700
C         -2.49000        3.33800        3.95300
N         -2.53700        3.90900        2.66500
C         -1.74000        3.31900        1.63000
N         -1.37300        1.97100        1.75700
N         -2.43200        3.58700        0.39900
C         -3.75700        3.07600        0.29300
C         -4.56300        3.81800       -0.75100
C         -3.93100        3.61900       -2.07000
C         -3.85100        2.17600       -2.50500
C         -3.45300        1.23700       -1.44100
C         -3.79100        1.60900       -0.04700
N         -2.05800        0.92000       -1.53900
C         -1.63000        0.08800       -2.59100
C         -0.09400        0.02700       -2.51500
C          0.36500       -0.53200       -1.19400
C          1.42600       -1.58600       -1.33100
C          2.53700       -1.11300       -2.23100
C          1.95700       -0.74200       -3.56500
C          0.45200       -0.87800       -3.58700
C          3.21300        0.06700       -1.56200
N          3.73800       -0.35000       -0.28800
C          4.39100        0.75300        0.40300
C          4.37800        0.42200        1.88800
N          4.47400       -1.03300        2.03900
C          5.02600       -1.30100        3.34700
C          5.36300       -1.53800        0.99400
C          4.63600       -1.47400       -0.35200
O         -2.06900        0.32400       -3.85700
C         -6.00800        3.48000       -0.67300
H         -2.29200       -2.91100        2.27700
H         -1.85000       -2.44200        3.94000
H         -2.98800       -0.59300        2.77700
H         -1.88200       -0.78400        1.39400
H         -0.99500       -0.21700        4.27100
H          0.60200       -0.46400        1.67700
H          1.24400        0.25500        3.23400
H          1.63100       -1.97800        3.33600
H         -0.07800       -3.65700        2.82300
H         -0.05400       -2.43600        1.46400
H         -0.41000        2.07800        3.64100
H         -2.50900        1.43500        4.86800
H         -3.37800        1.46600        3.31000
H         -3.42500        3.60300        4.49800
H         -1.63500        3.64700        4.57900
H         -2.29400        4.92200        2.72300
H         -0.77700        3.92200        1.55700
H         -0.51000        1.78200        1.19900
H         -2.40800        4.59200        0.19900
H         -4.26700        3.22400        1.26600
H         -4.48200        4.92200       -0.51600
H         -4.48400        4.22600       -2.81900
H         -2.90100        4.06300       -2.03200
H         -4.86600        1.90500       -2.87500
H         -3.19100        2.17300       -3.38700
H         -3.97700        0.24300       -1.63300
H         -3.21300        1.07500        0.71900
H         -4.86100        1.30100        0.18800
H         -1.47600        1.78100       -1.39100
H         -1.96700       -0.96800       -2.32200
H          0.28200        1.05100       -2.63100
H          0.76200        0.31000       -0.57100
H         -0.48600       -1.00200       -0.63800
H          0.97700       -2.53800       -1.73400
H          1.81800       -1.84200       -0.32000
H          3.31700       -1.91600       -2.34500
H          2.37800       -1.37000       -4.38000
H          2.20300        0.31100       -3.81000
H          0.10300       -1.91600       -3.45200
H          0.07400       -0.50200       -4.57400
H          4.04800        0.45100       -2.21000
H          2.49800        0.89600       -1.41500
H          3.80400        1.67300        0.20800
H          5.43100        0.89400        0.04300
H          3.42900        0.73500        2.36800
H          5.19800        0.93100        2.43300
H          4.51900       -2.19000        3.79800
H          6.13100       -1.43600        3.30500
H          4.76300       -0.44500        4.01000
H          5.61200       -2.60000        1.23300
H          6.30200       -0.95500        0.99600
H          5.42000       -1.29500       -1.11700
H          4.12300       -2.43300       -0.55900
H         -2.53100       -0.43100       -4.28900
H         -6.27700        2.42700       -0.71700
H         -6.51500        3.95200        0.21500
H         -6.53500        3.96000       -1.55100
