94
4csv_imatinib_conf42.pdb
C          3.20500       -2.34800        0.29300
C          3.21500       -0.94400       -0.27000
C          4.60500       -0.37300       -0.09600
C          5.57300       -1.31800       -0.75100
N          5.62100       -2.60000       -0.07100
C          4.55000       -2.74300        0.87900
C          4.72700        1.00800       -0.68100
C          4.43800        1.05500       -2.15500
C          4.97100        2.39600       -2.66600
N          4.94600        3.36700       -1.58700
C          3.78300        3.18900       -0.73900
N          3.83100        1.93600       -0.01700
N          2.62700        3.26400       -1.61000
C          1.38500        3.11300       -0.89300
C          1.13700        4.16300        0.14900
C         -0.20500        4.80400        0.12500
C         -1.34800        3.98900       -0.37200
C         -0.97600        2.64000       -0.90700
C          0.22100        2.90000       -1.83600
N         -0.46900        1.70900        0.08100
C         -1.43300        1.45200        1.08900
C         -1.02700        0.53600        2.20300
C         -2.14100        0.34200        3.21700
C         -3.14600       -0.68900        2.77700
C         -2.50400       -2.01700        2.48300
C         -1.09800       -2.01600        2.08900
C         -0.39000       -0.73700        1.86400
C         -3.38800       -2.81300        1.56200
N         -3.71200       -2.27200        0.31200
C         -2.72800       -2.14300       -0.70300
C         -2.27900       -3.46000       -1.28600
N         -3.27300       -4.43400       -1.47200
C         -2.72900       -5.76000       -1.14100
C         -4.51600       -4.30500       -0.80300
C         -4.84200       -2.92800       -0.30700
O         -2.58900        0.99400        0.42400
C          1.49600        3.69300        1.54700
H          2.87600       -3.08800       -0.46000
H          2.45100       -2.37800        1.10000
H          2.46000       -0.30300        0.22100
H          3.04700       -1.02900       -1.36400
H          4.87600       -0.30900        0.98600
H          5.20000       -1.55100       -1.78200
H          6.58900       -0.92300       -0.85100
H          6.51300       -2.74400        0.44700
H          4.69800       -2.17400        1.81300
H          4.49200       -3.79900        1.15900
H          5.79000        1.33700       -0.52800
H          3.32600        1.09600       -2.29500
H          4.86500        0.21800       -2.72700
H          4.44700        2.72900       -3.56900
H          6.04100        2.23200       -2.92200
H          5.82900        3.43100       -1.06500
H          3.77200        4.00900       -0.02100
H          4.03000        2.03700        0.99500
H          2.64700        4.21600       -2.03800
H          1.48000        2.14400       -0.32900
H          1.89800        4.97000       -0.08100
H         -0.16100        5.81200       -0.36500
H         -0.45500        5.07000        1.19700
H         -1.76400        4.52700       -1.28000
H         -2.22200        3.99100        0.31300
H         -1.76100        2.23700       -1.55500
H          0.03400        3.80600       -2.46200
H          0.43200        2.01100       -2.43900
H         -0.18500        0.87600       -0.49000
H         -1.72800        2.43200        1.52200
H         -0.27800        1.14800        2.80300
H         -1.67500       -0.02600        4.15300
H         -2.69600        1.27700        3.41100
H         -3.73300       -0.40800        1.89500
H         -3.87900       -0.78900        3.60000
H         -2.60500       -2.58700        3.47900
H         -0.51900       -2.56300        2.91100
H         -0.91500       -2.70900        1.23000
H          0.62400       -0.80500        2.37100
H         -0.07500       -0.69500        0.77600
H         -4.35600       -2.99500        2.13500
H         -2.91800       -3.83100        1.51600
H         -3.27600       -1.64000       -1.57800
H         -1.88400       -1.48400       -0.52500
H         -1.87000       -3.21500       -2.31400
H         -1.39800       -3.88200       -0.76200
H         -2.21600       -6.16500       -2.03900
H         -3.47600       -6.44800       -0.74200
H         -1.91100       -5.58800       -0.38100
H         -4.58100       -4.97600        0.07800
H         -5.32700       -4.61100       -1.49600
H         -5.16800       -2.28900       -1.15500
H         -5.71100       -3.02200        0.37000
H         -3.01700        1.75600       -0.02300
H          1.67400        2.61500        1.62700
H          0.66900        4.02500        2.24000
H          2.41500        4.17200        1.95200
