94
4csv_imatinib_conf5.pdb
C          6.72700        2.59800       -4.03800
C          5.73500        3.20700       -3.04300
C          5.82400        2.41200       -1.79100
C          7.26000        2.46700       -1.27700
N          8.19000        1.98400       -2.25300
C          7.54500        1.48900       -3.42800
C          4.84200        2.78900       -0.70900
C          4.96300        4.21400       -0.27600
C          3.54400        4.73500       -0.01400
N          2.84500        4.50000       -1.26400
C          2.47000        3.07200       -1.31400
N          3.54400        2.27600       -0.89000
N          1.92500        2.85400       -2.56900
C          1.45700        1.63800       -3.06100
C          2.55300        0.64100       -3.24200
C          2.63900       -0.51700       -2.34200
C          1.40300       -0.98200       -1.65000
C          0.45100        0.12700       -1.32400
C          0.22600        1.06600       -2.46500
N         -0.69800       -0.33700       -0.67600
C         -1.60400       -1.22000       -1.25100
C         -2.72600       -1.54600       -0.29000
C         -3.54600       -0.39400        0.16600
C         -4.32600       -0.92900        1.40000
C         -3.34000       -0.85500        2.51900
C         -2.11000       -1.64900        2.13900
C         -2.24800       -2.41400        0.85400
C         -3.83500       -1.16200        3.88100
N         -4.37400       -2.43200        4.15600
C         -5.63800       -2.64100        3.51300
C         -6.68300       -3.16600        4.49600
N         -6.22800       -4.29200        5.25100
C         -5.87400       -5.41100        4.39700
C         -5.03200       -3.91000        5.99800
C         -4.56200       -2.55200        5.59000
O         -1.14700       -2.45000       -1.69600
C          2.71400        0.24400       -4.71600
H          7.44500        3.35100       -4.42100
H          6.20100        2.15800       -4.92600
H          6.12200        4.24600       -2.84900
H          4.76900        3.21400       -3.54500
H          5.66500        1.34400       -2.03700
H          7.46900        3.56100       -1.14400
H          7.34400        1.98800       -0.29600
H          8.86100        1.31100       -1.82500
H          7.01400        0.53400       -3.31600
H          8.37100        1.28000       -4.17000
H          5.23700        2.20800        0.20500
H          5.50800        4.37600        0.67600
H          5.48100        4.85800       -1.01500
H          3.13500        4.09300        0.79300
H          3.54100        5.79700        0.22700
H          1.98100        5.09500       -1.28800
H          1.70500        3.03700       -0.46300
H          3.27800        1.50400       -0.22700
H          1.93000        3.67600       -3.23000
H          1.14200        1.88800       -4.13900
H          3.51700        1.23800       -3.06700
H          3.49000       -0.41800       -1.59900
H          3.01400       -1.38400       -2.98000
H          0.97600       -1.81600       -2.24000
H          1.72700       -1.46000       -0.68400
H          0.99300        0.75600       -0.55300
H         -0.31900        0.49200       -3.24200
H         -0.47400        1.86100       -2.14100
H         -1.20000        0.48300       -0.27100
H         -2.08400       -0.73600       -2.15600
H         -3.42400       -2.20200       -0.89300
H         -4.27800       -0.03800       -0.58300
H         -3.00400        0.47900        0.55700
H         -4.68400       -1.95100        1.17200
H         -5.13900       -0.19200        1.56700
H         -3.01200        0.23500        2.55100
H         -1.20900       -1.01500        2.20600
H         -1.97600       -2.41900        2.94700
H         -1.23500       -2.77900        0.58600
H         -2.90800       -3.26600        1.01500
H         -4.61100       -0.39500        4.15000
H         -3.02600       -0.97800        4.65700
H         -6.09600       -1.74100        3.07000
H         -5.54700       -3.45800        2.74200
H         -7.53200       -3.53600        3.85700
H         -7.09100       -2.39600        5.14800
H         -4.87000       -5.24200        3.98000
H         -6.61900       -5.47500        3.59000
H         -5.86600       -6.31800        5.03300
H         -4.24600       -4.68800        5.90800
H         -5.35500       -3.83700        7.06600
H         -3.62900       -2.32300        6.15000
H         -5.31000       -1.81200        5.95400
H         -1.56200       -2.74900       -2.52000
H          3.77000       -0.06100       -4.91400
H          2.08000       -0.62600       -4.98000
H          2.52300        1.13100       -5.35400
