94
4csv_imatinib_conf22.pdb
C          1.92200       -3.07900       -3.74700
C          0.87700       -2.90500       -2.69000
C          0.01700       -4.13500       -2.47300
C          0.77000       -5.41500       -2.63000
N          1.55500       -5.44000       -3.85600
C          2.58700       -4.43200       -3.72400
C         -0.49500       -4.06100       -1.03900
C         -1.36200       -5.25200       -0.75700
C         -2.22300       -5.10800        0.45700
N         -2.69600       -3.78700        0.72500
C         -1.66500       -2.80500        0.54400
N         -1.30300       -2.87700       -0.88500
N         -2.09400       -1.46600        0.76500
C         -2.61000       -1.18700        2.08700
C         -1.66300       -1.40100        3.19900
C         -1.23200       -0.24000        4.00500
C         -1.90500        1.06000        3.76400
C         -2.33100        1.28900        2.33700
C         -3.28000        0.15200        2.02300
N         -1.26600        1.30800        1.39200
C         -0.28600        2.33700        1.56200
C         -0.88600        3.72900        1.46500
C          0.20500        4.74900        1.65200
C          0.64200        5.47100        0.43600
C          0.40900        4.86100       -0.88000
C         -0.77200        3.90500       -0.95900
C         -1.67700        3.93800        0.22000
C          1.57300        4.33000       -1.66000
N          2.36100        3.29300       -1.11200
C          3.23900        2.84600       -2.24400
C          3.83600        1.50600       -1.83000
N          4.18400        1.57700       -0.41500
C          5.19800        0.59500       -0.15900
C          4.60200        2.93900       -0.17900
C          3.36900        3.82900       -0.17400
O          0.50300        2.21900        2.69600
C         -2.14200       -2.55000        4.10000
H          1.52700       -2.86300       -4.75800
H          2.74300       -2.33700       -3.53400
H          0.19200       -2.07300       -3.02000
H          1.30500       -2.58000       -1.73100
H         -0.83900       -4.10000       -3.16900
H          0.03100       -6.23900       -2.70900
H          1.40100       -5.64300       -1.74200
H          2.01300       -6.37900       -3.90000
H          3.17700       -4.56600       -2.81000
H          3.27400       -4.48100       -4.59000
H          0.33600       -3.98900       -0.33000
H         -1.94100       -5.53300       -1.66300
H         -0.64800       -6.10500       -0.56300
H         -3.14600       -5.73100        0.26500
H         -1.78600       -5.58000        1.37600
H         -3.56800       -3.53400        0.25300
H         -0.77100       -3.06300        1.12200
H         -2.21700       -2.98100       -1.39200
H         -2.74200       -1.10600        0.05900
H         -3.46000       -1.92800        2.20700
H         -0.72000       -1.83300        2.73500
H         -1.43300       -0.48900        5.09300
H         -0.10700       -0.10300        4.01700
H         -2.85200        1.11500        4.36400
H         -1.27400        1.87300        4.16900
H         -2.91200        2.23700        2.30400
H         -4.17400        0.20500        2.70100
H         -3.66800        0.30600        0.99200
H         -0.77600        0.36800        1.47100
H          0.43700        2.23400        0.70300
H         -1.58600        3.81400        2.32800
H         -0.11500        5.51400        2.42500
H          1.07400        4.25500        2.12600
H          0.14000        6.50900        0.49600
H          1.71200        5.73800        0.55600
H          0.04300        5.73100       -1.54300
H         -0.34000        2.88800       -1.05500
H         -1.39200        4.06100       -1.86600
H         -2.37400        3.07600        0.12100
H         -2.25000        4.86700        0.33000
H          1.19000        4.08100       -2.69000
H          2.22500        5.24000       -1.86200
H          2.67100        2.69000       -3.15500
H          3.99900        3.62700       -2.42000
H          3.04900        0.74700       -1.97900
H          4.68600        1.33100       -2.48800
H          6.01400        1.01200        0.45400
H          4.71900       -0.20700        0.47500
H          5.55700        0.08000       -1.07200
H          5.04800        2.99300        0.83300
H          5.37100        3.29900       -0.87400
H          2.95700        3.76500        0.84200
H          3.64100        4.86700       -0.39200
H          1.38200        1.79600        2.52800
H         -1.30400       -2.74100        4.83000
H         -3.06800       -2.30300        4.63300
H         -2.19000       -3.43500        3.45300
