20
./All_Backbone_XYZs/c5mers/PDBs/PAPGAP_fixed_backbone.pdb
N          7.97200        5.78400        5.84800
C          8.38700        7.03800        6.52200
C          7.11100        7.85000        6.79200
O          6.15500        7.36000        7.37900
N          7.06300        9.12000        6.33500
C          5.85800        9.91400        6.58500
C          4.68300        9.27400        5.86000
O          4.73800        9.00100        4.66600
N          3.60100        9.04000        6.61300
C          2.39800        8.43600        6.04700
C          2.47700        6.92500        5.85300
O          1.58400        6.37600        5.21400
N          3.53000        6.28900        6.34400
C          3.64900        4.82500        6.21700
C          5.09800        4.52500        5.78300
O          5.88300        3.98300        6.55600
N          5.47200        4.89300        4.53200
C          6.82100        4.67800        4.02000
C          7.72700        5.82300        4.52200
O          8.15300        6.68700        3.79100
