37
./arbalign_emd_output/253_FGG99-aligned_to-252_FGG55.xyz
O -1.658 -3.166 0.577
C -0.864 2.347 -1.499
O -3.147 0.642 0.81
H -2.931 1.16 1.6
C -2.219 -0.85 -0.763
H -2.406 -0.164 -1.586
H -3.104 -1.47 -0.63
N -1.078 -1.673 -1.045
H -0.27 -1.245 -1.48
C -2.026 -0.038 0.502
O -1.014 0.006 1.163
C -0.822 -2.705 -0.186
H 1.455 -2.031 1.402
H 1.088 0.311 1.875
N 2.036 -0.055 1.884
H 2.588 0.528 2.5
C 0.624 -3.178 -0.212
O 1.763 -1.001 -1.532
C 1.889 -1.098 -0.308
N 1.46 -2.162 0.399
H 0.97 -3.333 -1.232
H 0.695 -4.101 0.354
H 3.631 -0.343 0.602
C 2.585 -0.029 0.532
H 2.982 1.187 -1.188
H 0.78 1.166 -2.235
C 1.202 1.952 -0.286
C 2.566 1.329 -0.191
H 3.23 2.0 0.357
C 0.709 2.746 0.754
H 1.331 2.931 1.621
C -0.556 3.327 0.679
H -0.913 3.947 1.491
C -1.349 3.127 -0.449
H -2.327 3.583 -0.517
C 0.399 1.764 -1.417
H -1.462 2.212 -2.391
