37
./arbalign_emd_output/256_FGG366-aligned_to-252_FGG55.xyz
O -3.612 -0.225 -3.052
C -3.032 -0.027 -1.852
O -0.805 1.779 1.058
H -2.672 1.468 0.557
C -3.976 0.692 -0.909
H -2.953 -0.679 -3.598
H -4.908 0.132 -0.877
N -3.429 0.806 0.412
H 0.14 -1.281 -0.903
C -3.345 -0.338 1.157
O -3.988 -1.35 0.914
C -2.306 -0.261 2.265
H -0.662 -1.328 1.385
H -2.478 -1.069 2.968
N -0.996 -0.412 1.66
H 1.985 -0.172 2.026
C 4.034 -0.989 0.58
O -1.902 -0.373 -1.592
C 5.197 -1.25 -0.143
N 0.8 -1.173 -0.139
H 6.597 -0.498 -1.591
H 5.716 -2.19 -0.008
H 3.653 -1.726 1.277
C 5.693 -0.3 -1.032
H 5.405 1.657 -1.876
H 1.71 -1.46 -0.482
C 3.351 0.22 0.426
C 3.859 1.167 -0.47
H 3.342 2.111 -0.593
C 5.021 0.912 -1.193
H 2.022 1.516 1.499
C 2.066 0.481 1.156
H -2.341 0.699 2.777
C -0.403 0.613 1.014
H -4.189 1.676 -1.321
C 0.852 0.232 0.25
H 0.904 0.925 -0.594
