37
./arbalign_emd_output/260_FGG412-aligned_to-252_FGG55.xyz
O 1.785 -0.802 -1.583
C -1.254 2.202 -1.288
O -3.437 0.225 0.523
H -1.526 0.582 1.682
C -2.185 -1.346 -0.79
H -2.482 -0.86 -1.717
H -2.886 -2.157 -0.599
N -0.86 -1.881 -0.914
H -0.146 -1.358 -1.408
C -2.386 -0.336 0.324
O -1.276 -0.123 1.062
C -0.434 -2.811 -0.014
H 1.89 -1.668 1.426
H 1.462 0.736 1.879
N 2.394 0.357 1.745
H 3.031 0.957 2.254
C 1.073 -3.026 -0.034
O -1.178 -3.394 0.761
C 2.03 -0.804 -0.373
N 1.761 -1.842 0.438
H 1.416 -3.236 -1.047
H 1.304 -3.863 0.616
H 3.788 0.178 0.23
C 2.715 0.373 0.32
H 2.711 1.558 -1.465
H 0.436 1.255 -2.228
C 0.981 2.112 -0.342
C 2.419 1.686 -0.423
H 3.055 2.461 0.011
C 0.511 2.836 0.761
H 1.204 3.129 1.54
C -0.827 3.226 0.848
H -1.167 3.795 1.704
C -1.715 2.906 -0.176
H -2.752 3.202 -0.112
C 0.078 1.801 -1.366
H -1.934 1.969 -2.097
