24
./arbalign_emd_output/CINYED_fixed_backbone-aligned_to-BIHXUL10_fixed_backbone.xyz
C 6.475 14.257 5.754
N 6.332 13.271 4.684
O 5.225 15.727 7.118
C 5.205 14.997 6.128
N 4.138 14.838 5.342
O 1.001 14.481 6.751
C 2.86 15.491 5.625
C 1.745 14.449 5.784
N 1.646 13.549 4.776
O 2.143 10.954 3.855
C 0.578 12.56 4.749
C 1.191 11.153 4.588
N 0.528 10.195 5.275
O 2.689 8.709 6.574
C 0.835 8.762 5.074
C 2.296 8.484 5.425
N 3.084 7.965 4.502
O 6.619 8.738 4.787
C 4.486 7.667 4.762
C 5.417 8.844 4.532
N 4.884 9.948 4.039
O 5.19 11.864 6.003
C 5.65 11.139 3.739
C 5.706 12.094 4.928
