17
./arbalign_emd_output/s1maw1-13-aligned_to-s1maw1-1.xyz
S 0.39297 -1.47514 -0.30585
O 1.59719 -0.77588 -0.85681
O -0.93345 -0.88523 -0.70172
O 0.50714 -2.97316 -1.00678
O 0.45227 -1.71469 1.19923
H -0.27413 -3.4667 -0.699
H -1.46522 2.20955 2.91105
N -0.75447 0.64161 1.67084
H -0.0576 1.29713 3.54356
H -0.08862 1.21936 1.10343
C -1.01333 1.21523 3.0124
H -0.31018 -0.32151 1.69716
H -1.59567 0.51636 1.1003
H -1.68825 0.55304 3.56783
O 1.25375 1.76656 0.14397
H 1.15548 2.38526 -0.59111
H 1.50312 0.91219 -0.28851
