17
./arbalign_emd_output/s1maw1-18-aligned_to-s1maw1-1.xyz
S 1.70308 1.70804 -0.86515
O 2.7831 1.87716 -1.8622
O 0.40686 2.64963 -1.4079
O 1.13446 0.29448 -0.77643
O 1.91162 2.28443 0.51527
H 0.49593 2.66082 -2.37718
H -0.19609 1.18104 1.81445
N 0.33101 0.28426 1.74338
H 1.21118 0.43593 2.24204
H 0.60267 0.20116 0.70925
C -0.4234 -0.88943 2.24305
H 0.19131 -1.79005 2.12638
H -1.33743 -0.99277 1.64611
H -0.68438 -0.74753 3.29898
O -0.42861 2.94581 1.76297
H 0.38483 3.00336 1.21149
H -1.09814 3.42163 1.25449
