17
./arbalign_emd_output/s1maw1-9-aligned_to-s1maw1-1.xyz
S -0.4467 -1.02758 -1.66642
O 0.31291 0.00963 -2.45701
O -1.93746 -0.93773 -1.74287
O -0.08894 -2.47776 -2.38796
O 0.04771 -1.13355 -0.22985
H 0.84317 -2.40445 -2.66125
H -1.55864 1.34799 -0.08397
N -1.81591 0.60546 0.60842
H -1.0071 1.60729 2.27055
H -1.04626 -0.11585 0.49879
C -1.95224 1.1287 1.98792
H -2.16526 0.29881 2.67226
H -2.65535 0.14033 0.25123
H -2.76469 1.8645 2.02822
O -0.65345 2.30293 -1.24177
H -1.1012 2.79652 -1.9412
H -0.18962 1.57577 -1.7261
