15
./arbalign_emd_output/Wat_5_cluster_22_lowest_11-aligned_to-Wat_5_cluster_13_lowest_2.xyz
O 0.3809031 -3.9387941 -36.1540833
H -0.10202315 -3.105699 -36.2421036
H 0.7667328 -3.9199757 -35.2803268
O -1.76379406 -4.2089562 -40.0075417
H -1.12539494 -4.5762257 -40.6145439
H -1.29505622 -4.7109446 -36.9214211
O -1.1454103 -1.5524703 -39.4029579
H -1.32723522 -0.6590945 -39.6848183
H -1.29824376 -1.5672911 -38.4462166
O -2.18511176 -4.5558142 -37.2633743
H -1.52758956 -3.2724583 -39.912014
H -2.10943794 -4.5755024 -38.2290764
O -1.69446146 -1.9530553 -36.664959
H -2.28981519 -1.5608894 -36.0321503
H -2.03708911 -2.8473873 -36.8510857
