27
./arbalign_emd_output/Wat_9_cluster_1185_2nd_lowest-aligned_to-Wat_9_cluster_1184_1st_lowest.xyz
O 33.5731354 -15.7173882 15.718178
H 33.9331284 -16.4740753 15.264466
H 32.6026115 -15.7974749 15.674962
O 29.124197 -13.5192804 19.239917
H 30.184103 -16.5023136 19.126075
H 30.3940487 -12.2136154 16.608741
O 33.2773285 -12.1396055 17.936662
H 33.894558 -11.703433 18.517351
H 31.4146748 -11.8736267 17.711183
O 30.4685345 -11.9065847 17.520961
H 29.5620556 -12.8802691 18.650322
H 28.4306545 -13.0397043 19.683052
O 30.5841713 -12.9903212 14.889439
H 30.2913494 -12.6354017 14.054414
H 31.5555229 -12.9167576 14.900853
O 30.8561897 -15.6958733 15.7798
H 30.6087418 -14.8139534 15.473675
H 30.6266727 -15.7372904 16.717163
O 33.2919083 -12.9245806 15.194013
H 33.3991089 -12.5394459 16.073728
H 33.5396233 -13.8542004 15.282918
O 33.1932259 -14.816083 18.399465
H 33.2723846 -13.0810823 18.187084
H 33.4593849 -15.2013083 17.554483
O 30.5017796 -15.763958 18.612983
H 29.9732609 -14.9911356 18.878353
H 32.3055344 -15.1542368 18.572681
