30
./arbalign_emd_output/Wat_10_cluster_5311_2nd_lowest-aligned_to-Wat_10_cluster_5310_1st_lowest.xyz
O 7.03600216 -0.7792884 4.07073021
H 8.64989662 0.17591648 4.10089445
H 6.7348671 -1.4448204 3.45870805
O 9.72655296 0.62934625 7.12246704
H 10.4924183 0.53636777 7.68206167
H 9.48286152 1.57258594 7.13239527
O 9.43335819 0.71529674 4.26938581
H 9.23235226 2.44078112 4.06337023
H 9.65107727 0.58002728 5.2001853
O 6.17101192 3.63458419 7.27924681
H 6.21152925 3.7975657 5.33711958
H 5.7682972 2.75483632 7.35876083
O 5.10322475 1.07482314 7.36925459
H 5.85544443 0.46315423 7.26778841
H 4.4429369 0.61348963 7.87914419
O 7.18494987 -0.5837522 6.9128685
H 7.15824175 -0.79754 5.97128439
H 8.07010937 -0.2351406 7.08016157
O 6.27240992 3.65470266 4.38492775
H 7.21731043 3.6276989 4.18723345
H 5.49215317 2.01547909 4.28479481
O 5.15151739 1.12282515 4.44798088
H 6.33705902 -0.1016377 4.11658144
H 4.9424839 1.09629607 5.38763666
O 8.96574593 3.22527909 6.92703009
H 5.67068624 4.21837139 7.84426403
H 8.04214573 3.41404843 7.13409948
O 9.09649563 3.40487766 4.08873034
H 9.0714283 3.42341304 5.98707867
H 9.70524406 3.7849524 3.46146345
