72
./arbalign_emd_output/Wat_24_cluster_1928475_2nd_lowest-aligned_to-Wat_24_cluster_1928474_1st_lowest.xyz
O 1.6131525 1.8217942 3.6025893
H 3.8466634 0.9725557 1.5132727
H 2.3607724 1.2119676 3.5440951
O 2.4960745 -0.96908331 -3.37928499
H -1.24129134 -2.47918304 -0.10798543
H 0.5109288 -3.52629139 -3.61990473
O 1.9574427 -4.8074011 2.6911957
H 5.2519021 0.3703676 -0.02500119
H 1.6615539 -2.03276 1.5273061
O 5.8573418 -1.68867623 2.2991775
H 1.725333 -5.48591937 3.3194152
H 6.654474 -1.86990792 2.7896169
O -0.2245419 0.1294536 2.4003378
H 0.2529531 0.7671828 2.9508883
H -0.03094337 1.2043347 0.9563612
O 2.2045613 0.5197356 -1.08525695
H 0.2316073 -2.76321404 -0.50610026
H 1.4112445 0.9541501 -0.74808182
O 0.7917713 -5.37672482 0.298356
H 3.4205351 -1.23434361 -3.29947142
H 0.1444011 -4.70238525 0.0519738
O 2.0085219 3.4949316 1.2562297
H 1.8195944 4.420629 1.1258267
H 3.4823653 2.3465726 0.9015958
O -0.39222486 -0.49133128 -3.42298792
H -1.11565624 -3.20239925 -2.2346184
H -0.75365598 -1.38749777 -3.44060475
O 1.864992 -2.08970086 -0.21011251
H 2.0139106 -1.19749888 -0.54656016
H 2.3657477 -0.34914276 -2.64544143
O 1.4718293 -3.61555344 -3.64219771
H 1.3081896 -5.55225071 -0.4967202
H 2.0314161 -4.93422992 -2.70680951
O -2.06096307 -1.02802013 0.541314
H -2.54299912 1.338016 -2.05500149
H -1.59014267 -0.62187008 1.2804883
O 0.0974461 1.8041946 0.2057422
H 1.2839646 2.9994793 0.8379214
H 0.2758915 -0.69504196 2.4768558
O -0.66811994 -3.12111502 -0.55156447
H -1.29426494 0.4515524 -2.26787521
H 0.5536639 -0.58273468 -3.57874937
O 1.5339388 -2.02523395 2.4894111
H 2.6180081 -2.6390311 -0.4596221
H 1.605773 -2.94575576 2.7633647
O 5.1381436 -1.76012519 -2.59310447
H 5.9278787 -1.77205531 -3.12771202
H 1.5342582 -5.0516514 1.848728
O -1.27232557 -3.16836219 -3.1955541
H -2.08544037 -3.63643015 -3.36235252
H 1.829128 -2.72179673 -3.56541013
O 4.5523502 -3.9831699 1.7939628
H 3.7234759 -4.30452898 2.1661559
H 4.4305675 -3.97054103 0.8338029
O 4.0233524 -3.73154264 -0.9229335
H 5.3543391 -1.25202617 -1.78944098
H 4.4512439 -3.17346171 -1.5839685
O 2.3692193 -5.62583088 -2.10775188
H 2.5089997 -6.40691505 -2.63581631
H 3.5619603 -4.45000978 -1.37536724
O 5.6875034 -0.45181884 -0.28280102
H 5.8329707 -0.9299607 0.5427783
H 5.4076079 -2.54322172 2.1663094
O -1.81551364 0.9261567 -1.59632208
H -0.61984437 1.6398032 -0.4192573
H -2.08288089 -0.36697349 -0.16081283
O 4.0055379 1.5503553 0.7507989
H 2.8722683 -0.82197053 2.8278509
H 2.9334013 0.8467181 -0.54196506
O 3.5713767 -0.15756763 2.909031
H 1.7919841 2.514905 2.956855
H 4.4058461 -0.63743371 2.8352597
