36
./arbalign_emd_output/Wat_12_cluster_43599_lowest_18-aligned_to-Wat_12_cluster_43582_lowest_1.xyz
O -1.3655934 9.18029499 -19.001934
H -2.2586264 9.54210567 -18.96709
H -1.113944 9.01092625 -18.084585
O -3.7788653 9.01399136 -16.157362
H -3.7877011 8.53840542 -14.292724
H -4.0165844 9.43415165 -16.992443
O -4.2743287 5.44478703 -14.237712
H -3.3812956 5.08297682 -14.272556
H -3.9298613 7.1563859 -13.6207
O -4.2367281 9.75226974 -18.844415
H -4.4825348 8.87962914 -19.190765
H -4.364429 7.31045341 -16.576122
O -1.8610568 5.61109114 -17.082284
H -1.7100608 7.46869659 -19.618946
H -1.6233376 5.19093084 -16.247203
O -4.5414109 6.41916847 -16.912422
H -5.1977715 6.69592237 -20.394384
H -3.7850208 6.88227701 -19.785226
O -1.4031939 4.87281275 -14.395232
H -1.1573872 5.74545336 -14.048881
H -0.9091434 4.22835064 -13.894128
O -1.0985111 8.2059145 -16.327224
H -1.8549014 7.74280548 -13.45442
H -1.2754931 7.31462908 -16.663524
O -0.9147438 7.50058889 -13.553309
H -0.4421507 7.92915964 -12.845263
H -0.8581822 8.09335423 -15.400961
O -2.0879693 6.58459997 -19.739507
H -1.8522211 6.08667755 -18.946924
H -2.8102772 5.7993679 -17.02996
O -4.7251782 7.1244936 -19.686338
H -4.525978 5.61415577 -15.155061
H -4.7817401 6.53172779 -17.838686
O -3.5519528 8.04048252 -13.500139
H -2.8296449 8.82571507 -16.209688
H -4.7307786 10.3967323 -19.345518
