33
./arbalign_emd_output/Wat_11_cluster_33415_lowest_3-aligned_to-Wat_11_cluster_33413_lowest_1.xyz
O -14.5179071 7.950901 0.53169703
H -11.8118668 6.3044099 0.71852094
H -12.9832602 7.0303764 0.03483196
O -14.6202164 3.2836654 0.9296577
H -15.4865494 3.6988766 1.02541459
H -14.2772789 3.5769376 0.07471567
O -16.9533501 4.9289026 1.20270491
H -17.8965893 4.7971811 1.1704154
H -15.8227749 5.8845739 2.38324666
O -11.2574949 6.0464768 2.54395199
H -13.8014908 7.5898242 3.55667067
H -12.289958 7.509583 3.31627846
O -13.654892 4.4690136 -1.4419914
H -13.2112198 4.212533 -2.24546
H -15.2490816 5.5625314 -1.3249115
O -13.1790152 4.1100759 3.04403758
H -13.2860832 3.4777789 3.74991608
H -14.426672 5.572021 2.94272161
O -15.0543861 6.2921347 2.80392075
H -13.6328182 3.7413497 2.26446176
H -11.8559942 5.3068532 2.73839998
O -13.4887066 10.14417 1.84916854
H -13.6365213 10.983598 2.27634978
H -14.2218409 8.8160181 0.8464694
O -12.281868 6.3815331 -0.1184442
H -15.527566 6.9044599 -0.6205462
H -13.0874929 5.1306982 -1.0052874
O -12.9834471 8.095644 3.64335442
H -10.384264 5.7734594 2.81546617
H -13.2414017 9.5236234 2.55520964
O -15.962328 6.1319236 -1.0110256
H -14.6937857 7.4209117 1.32127166
H -16.7015877 5.369245 0.37024057
