78
./arbalign_emd_output/Wat_26_cluster_2726711_2nd_lowest-aligned_to-Wat_26_cluster_2726710_1st_lowest.xyz
O 0.385511 -1.5012537 2.31788284
H 0.2020871 -2.3161197 1.8369417
H 0.0331781 -4.5205122 0.51808909
O 3.0938661 -2.7946258 -3.5705286
H 1.6603552 0.2293726 -2.7283697
H 2.7627226 -2.040427 -0.4633251
O -1.47695821 3.78015175 1.18416196
H -1.66739911 4.1020773 -0.484202
H -0.54174179 3.57346135 1.32691742
O -2.74066871 1.68050461 2.66396119
H -3.45654981 1.7207354 3.29204443
H -1.9776939 3.14416792 1.70686826
O 1.0362838 -2.1492696 -5.1714362
H 2.3267236 -2.6707637 -4.1597541
H 3.6081254 -3.511541 -3.9316906
O 3.3301117 -0.3789316 0.20874339
H 3.3386766 -0.5716413 2.09741431
H 3.8261173 0.23173079 -0.3488876
O -1.91317536 -2.1489701 -1.1078304
H -1.401473 -1.6762444 -2.7236038
H -1.30248493 -2.6627345 -0.565741
O -2.26212276 0.30311883 0.25890405
H -2.58282516 0.71106981 1.0724063
H -2.77787225 1.22762797 -1.2671421
O -1.01705137 -1.308242 -3.534385
H -1.64082547 -0.6788629 -3.9166783
H -0.97351154 1.6714999 -5.0811809
O -2.92622836 1.7500632 -2.0653234
H -2.60481744 2.63889317 -1.8712034
H -2.18186732 -1.390449 -0.5740376
O -2.56839269 0.80000196 -4.5387451
H -2.74457755 1.15662983 -3.6478909
H -3.40213248 0.78624898 -5.0004747
O 2.3048907 -2.8081637 -0.82825
H 0.4389951 -0.8126788 1.63691329
H 2.14006 -1.0789489 2.90955584
O 3.2908683 -0.0058509 -3.6334438
H 2.9114625 0.22100356 -4.4935499
H 3.3466675 -0.9703358 -3.589844
O -0.11099168 2.06607433 -5.2603495
H 1.1788167 1.04754767 -5.7752241
H 2.1874763 0.7155024 -6.8979609
O -0.52459339 0.66958221 3.8414308
H -0.3018381 -0.1905523 3.45925624
H -1.96573135 1.33525234 3.14308014
O 0.5367995 3.14535 -2.7233504
H 0.5234599 2.19168466 -2.5516331
H 0.1116175 2.59858243 -4.4857103
O 2.6508673 3.39514504 -0.8357324
H 2.0009067 3.43246418 -1.5503822
H 3.3386454 2.78514253 -1.1241929
O 1.9175104 0.46117954 -6.0197682
H 0.2506537 -1.96274 -4.6357478
H 1.2696446 -1.317158 -5.5994646
O 1.1469064 2.93657216 1.38138176
H 1.7827931 3.18867268 0.6937034
H 1.6090017 2.69899404 2.19417821
O 0.575004 0.45796653 0.35857964
H 0.7228567 1.35891656 0.68134037
H -1.2995618 0.37728075 0.29241044
O 2.1275324 1.86707365 3.78005879
H 2.6076944 2.17986903 4.54198924
H 0.3080946 1.14782696 3.92060091
O 4.5344583 1.38737354 -1.645762
H 4.155579 0.93321565 -2.4175211
H 5.4498735 1.56282769 -1.8493158
O 0.0369803 -3.5703086 0.43814284
H 2.5506952 -2.8550245 -1.7588181
H 0.8542003 -3.3321755 -0.0365985
O -1.7372498 4.22790768 -1.4480637
H -0.2360823 3.53131649 -2.2903233
H -2.05733781 5.1151321 -1.5864912
O 2.970074 -0.5891059 2.99000163
H 2.4327004 -0.026881 0.27630824
H 2.5067469 1.00163796 3.54474575
O 0.8007792 0.39379301 -2.3248262
H 0.1638071 -0.1999941 -2.7453552
H 0.6396648 0.43721462 -0.6087893
