18
./arbalign_emd_output/Wat_6_cluster_50_lowest_20-aligned_to-Wat_6_cluster_42_lowest_12.xyz
O 25.0299778 6.51480818 24.0381851
H 28.419117 7.17387533 24.3569469
H 24.2744312 5.46354437 25.2135696
O 24.5457306 6.98275232 27.7223244
H 24.2807159 6.23037767 27.1613579
H 23.5003262 9.31843472 25.5894108
O 24.3131886 8.82128716 25.5241222
H 25.9933014 6.47158957 24.1186867
H 24.7786961 7.38964844 24.3632336
O 27.7698593 6.52618313 24.6220455
H 27.6823616 6.62227774 25.5835743
H 24.3742847 8.30809116 26.3422108
O 27.3545265 6.78914499 27.3744888
H 26.4067993 6.88679504 27.5454044
H 27.6982822 6.27305698 28.1005993
O 23.901556 5.01083326 25.9919586
H 23.77141 4.10326767 25.7343369
H 24.0063534 6.94417715 28.5074043
