21
./arbalign_emd_output/Wat_7_cluster_147_lowest_11-aligned_to-Wat_7_cluster_137_lowest_1.xyz
O 34.7458763 1.80883443 -2.8281199
H 32.6761513 3.81550813 -4.716844
H 31.748951 1.73547781 -5.047532
O 34.5254974 0.21078969 -5.1257572
H 33.5630913 0.32361665 -5.1428027
H 34.6818237 -0.7190126 -5.276174
O 31.755579 0.76495343 -4.9805083
H 30.9817657 0.45524335 -5.4440307
H 31.89431 0.90941495 -3.0010418
O 32.1095695 1.16056824 -2.0946478
H 31.7842712 2.06332159 -1.9894027
H 33.9295235 1.49858832 -2.4106214
O 34.0418129 4.3610549 -3.2926702
H 34.7984734 4.93635798 -3.3514998
H 34.8562546 1.25808358 -3.6144964
O 31.7805538 3.50380945 -4.8956313
H 31.3124046 3.70035934 -4.074387
H 31.3096409 4.63400269 -1.4144891
O 31.5292053 4.00445414 -2.0964217
H 34.3840332 3.46323228 -3.1245818
H 32.4261169 4.22555304 -2.3989183
