15
./arbalign_emd_output/Wat_5_cluster_13_2nd_lowest-aligned_to-Wat_5_cluster_12_1st_lowest.xyz
O -5.3923692 -2.6562185 -4.2704563
H -6.3129844 -2.6427905 -4.581202
H -5.4381856 -2.6000745 -3.3193831
O -3.9399578 -4.1968617 -6.0247364
H -3.2947697 -3.6257224 -6.4337
H -4.4153204 -3.6429352 -5.3833952
O -7.9811186 -2.7260711 -5.1907563
H -8.09375 -3.4774994 -5.7962427
H -8.7119321 -2.1384596 -5.3629269
O -8.1788034 -4.8575172 -6.9201893
H -7.3254971 -5.3220143 -6.9335408
H -8.6426401 -5.1457715 -7.7017498
O -5.7198705 -6.0910282 -6.9207553
H -5.3929338 -6.9368143 -6.624856
H -5.0595712 -5.4383664 -6.6341838
