75
./arbalign_emd_output/Wat_25_cluster_2243821_lowest_19-aligned_to-Wat_25_cluster_2243818_lowest_16.xyz
O -11.995975 15.8780184 -4.72376633
H -11.545958 15.1959343 -4.20960093
H -10.363824 13.4539137 -2.73473907
O -13.317404 16.2299118 -9.2364912
H -12.167967 15.4166002 -8.03004169
H -13.536813 17.6761189 -8.08178234
O -10.921922 12.5957165 -6.1661396
H -10.862921 12.8703547 -5.24272013
H -11.30866 13.3482008 -6.6347785
O -8.3685951 12.6780071 -7.11774635
H -8.0484008 11.8462896 -7.45532846
H -8.6155548 14.4123983 -7.79482508
O -9.8198823 20.3362255 -3.86264777
H -9.8080234 19.3980045 -4.10112524
H -10.81379 22.0063267 -7.13841963
O -7.6250519 16.7018642 -5.83835983
H -9.5158329 21.4425049 -9.16421413
H -7.1558752 17.4503269 -6.23385096
O -11.601816 15.0794926 -7.32619524
H -13.981823 15.7741289 -9.74568939
H -13.530697 20.1285839 -8.40265942
O -13.710198 18.0197372 -4.81328487
H -12.831459 19.7913094 -4.64798689
H -14.463295 17.9023857 -4.23884296
O -7.9786739 14.1786022 -4.67943192
H -7.9380626 13.6120844 -5.45895147
H -10.139323 20.957346 -10.4853868
O -9.3473682 17.4811115 -9.5429945
H -8.5653123 18.0317268 -9.67389584
H -9.0815429 16.6764107 -9.07718658
O -13.377344 20.9839287 -8.82701588
H -11.919063 15.6165428 -5.65473413
H -13.142572 17.2412167 -4.68993807
O -11.773944 17.7392883 -10.819047
H -11.859288 18.687418 -10.9729204
H -10.872311 17.6027298 -10.493041
O -9.2963752 21.1620216 -10.063242
H -8.4065713 15.8277664 -7.19604874
H -7.9767212 20.0550709 -9.93123722
O -10.446559 13.8373985 -3.60364556
H -10.232255 18.3964481 -8.20032787
H -10.20521 18.1990433 -5.84848547
O -10.012002 21.5315495 -7.38712454
H -8.4161357 17.0786076 -5.42460823
H -9.0898637 20.727869 -4.35420752
O -7.300981 19.3677406 -9.78666782
H -6.6210961 19.5070496 -10.4403667
H -6.8607697 19.1693325 -7.93041563
O -12.511212 22.5287361 -6.60420513
H -12.841152 23.3467503 -6.24386787
H -10.65329 17.1430035 -4.79897976
O -13.443156 18.4907284 -7.57221413
H -13.644985 18.3016911 -6.64729977
H -13.146536 21.5928574 -8.1155653
O -8.8620309 15.3388662 -7.89856148
H -10.68036 15.2425356 -7.57171631
H -9.2812089 12.5280857 -6.81258154
O -11.906666 20.5698929 -11.0565996
H -12.787376 16.754261 -9.8660078
H -12.309928 21.0391941 -11.782443
O -12.449326 20.6728992 -4.66972065
H -12.543142 21.8707752 -5.88416433
H -11.547985 20.6006927 -4.31950855
O -6.7111983 19.0122089 -6.99099779
H -7.3747119 22.1708794 -5.65397787
H -7.0322423 19.7962933 -6.52898312
O -7.839313 21.3413029 -5.73504066
H -7.7046952 15.0572491 -4.97684145
H -8.5865516 21.4971485 -6.33756256
O -10.660749 18.8460407 -7.460989
H -12.445782 20.761322 -10.26791
H -11.616601 18.7454414 -7.55752087
O -9.9798059 17.8044624 -4.99161768
H -9.5404758 13.9948854 -3.92604971
H -10.241124 20.588459 -7.393085
