16
./All_Backbone_XYZs/c4mers/PDBs/ALPRAL10_1_fixed_backbone.pdb
N          7.30300        7.04100        6.50500
C          7.50400        8.41500        6.10100
C          6.86300        9.47300        7.00400
O          6.40600       10.50900        6.51000
N          6.84500        9.30900        8.35100
C          7.49600        8.27700        9.12100
C          6.65200        7.01900        9.23900
O          5.44500        7.02600        9.07100
N          7.32100        5.91000        9.54100
C          6.64600        4.62100        9.58800
C          6.00300        4.23600        8.24500
O          4.88000        3.77400        8.25400
N          6.69500        4.36700        7.08500
C          8.10800        4.72300        6.90300
C          8.35200        6.19700        6.55400
O          9.51200        6.54600        6.35800
