28
./All_Backbone_XYZs/c7mers/PDBs/KARPIE_fixed_backbone.pdb
N          6.49200        1.71500        6.35700
C          7.17700        0.47300        6.52400
C          7.46600        0.04900        7.95400
O          7.97100       -1.03200        8.19800
N          7.16900        0.95300        8.89500
C          7.42300        0.74400       10.29700
C          6.07200        0.62200       11.01900
O          5.01800        0.89800       10.46000
N          6.10800        0.27700       12.32800
C          4.88400        0.21400       13.12400
C          4.51800        1.50200       13.82800
O          3.61000        1.49700       14.65000
N          5.21400        2.61000       13.52000
C          4.97000        3.87500       14.21900
C          4.72100        4.99400       13.22800
O          3.61800        5.16700       12.75400
N          5.74300        5.79500       12.90200
C          5.57200        6.99100       12.09300
C          5.93000        6.78500       10.63700
O          5.17800        7.15000        9.77200
N          7.14300        6.26900       10.36400
C          7.64500        6.19700        8.98600
C          6.99500        5.03000        8.25800
O          6.75000        3.93900        8.81400
N          6.77200        5.22400        6.95800
C          6.21800        4.13000        6.14600
C          7.11400        2.90600        6.26800
O          8.35700        2.97500        6.25100
