28
./All_Backbone_XYZs/c7mers/PDBs/NUCZUH_fixed_backbone.pdb
N         -0.17300        5.51400       14.91300
C         -0.73700        4.73700       16.00900
C         -2.25000        4.90300       16.02200
O         -2.74300        6.02600       15.83200
N         -3.03700        3.84600       16.27100
C         -2.63400        2.49400       16.65900
C         -2.62200        1.48500       15.50700
O         -2.42800        0.30300       15.73700
N         -2.85300        1.96100       14.26900
C         -2.87300        1.04400       13.13400
C         -1.53800        0.30500       13.04800
O         -1.49000       -0.90400       12.81200
N         -0.46700        1.06900       13.18600
C          0.88000        0.56000       13.26500
C          1.64200        1.45200       14.23900
O          1.07500        2.29900       14.90900
N          2.95500        1.28200       14.28900
C          3.77200        2.15700       15.09300
C          3.60900        3.62900       14.66300
O          3.55500        4.51400       15.51100
N          3.51000        3.84500       13.35100
C          2.97000        5.07800       12.78900
C          1.98800        4.66400       11.69700
O          2.29800        3.77200       10.90700
N          0.84400        5.35700       11.56700
C          0.18900        6.15700       12.60600
C         -0.43800        5.23000       13.65600
O         -1.15300        4.28300       13.32400
