28
./All_Backbone_XYZs/c7mers/PDBs/ZOHMIS_fixed_backbone.pdb
N          4.24200        5.05900       10.11800
C          3.76000        5.48900        8.81500
C          3.34700        4.29000        7.97100
O          3.94800        3.20900        8.03200
N          2.30700        4.54000        7.14800
C          1.79200        3.55900        6.22600
C          0.96100        2.44800        6.89500
O          0.41100        1.59400        6.20600
N          0.90000        2.47600        8.23200
C          0.26700        1.36400        9.01000
C         -0.79600        2.02200        9.89900
O         -2.00400        1.79400        9.68000
N         -0.39300        2.82600       10.86700
C         -1.26900        3.60200       11.74100
C         -0.36900        4.36900       12.65200
O          0.56600        3.85200       13.24600
N         -0.63900        5.69100       12.78200
C          0.20700        6.56800       13.53300
C          0.54500        5.99600       14.91500
O         -0.37200        5.56100       15.59600
N          1.78900        6.02500       15.33600
C          2.95800        6.71100       14.79800
C          3.73900        5.89800       13.73100
O          4.88000        6.30400       13.49500
N          3.24200        4.76900       13.26500
C          3.97500        3.97400       12.29800
C          3.45700        4.35600       10.92600
O          2.33100        4.00000       10.54900
