57
./arbalign_output/no_reflection/19-TIP5P-aligned_to-19-TIP4P.xyz
O -0.7500029175 2.4608223 3.029247548
H -0.879924932854 1.61226344604 3.4526858331
H -1.32527859536 2.24481587162 1.32883345772
O -2.808146608 -0.1437962236 -2.495953107
H -2.41974369535 1.57764622044 -2.39341424662
H -3.61639863663 -0.3677833484 -2.95724506025
O -1.137783706 0.1315629051 4.172866943
H 2.5559615326 1.00690038969 2.44191749119
H -0.326876782535 -0.374961918479 4.21863160815
O 1.144992039 0.3907933102 -4.22782528
H 0.928767143741 1.18866573021 -3.74525068882
H 1.44196416687 0.700809558218 -5.08335395938
O 0.1076910901 -2.080073268 -0.03508274555
H 0.0738532529254 -2.60919819857 0.761857433272
H 0.388621813332 -2.78191673792 -1.57221508527
O -2.081026768 2.453398113 -2.207507534
H -0.453196705218 1.99737915789 0.116338739649
H -2.10269220028 2.52145431834 -1.25297581532
O 1.112139115 -1.338427856 3.916267992
H 1.64667977091 -1.61655640771 4.66000358742
H 1.71503798339 -0.848025768114 3.3574741242
O -1.354762376 1.920735327 0.4286477284
H 1.43982469434 -1.01463149644 -0.0965460702522
H -1.85024996973 0.321849066827 0.254923279634
O 1.157991482 2.0655342 -0.3226508979
H 1.67158304183 2.54419798875 0.327992266215
H 2.27007392583 3.32886913973 2.80165343914
O 2.672573935 -1.230536558 -2.676615601
H -0.705563936063 -1.57539828644 -0.0227837452052
H 2.11766503055 -2.00662249552 -2.75406600673
O -0.2794590151 -3.078929031 2.389799972
H -1.15761341546 -2.77513195134 2.61954771089
H 0.300903949708 -2.6122651709 2.99116135317
O 1.853263846 2.622359236 2.308353375
H -1.20441162552 3.08400348003 3.59616004824
H 0.946153645029 2.61901920322 2.61392131749
O 2.146617578 -0.3737657493 -0.1737908355
H 2.28541861467 -0.597393054396 -3.28115832223
H 2.62477090238 -0.637422022859 -0.959975678775
O 2.786588378 0.07797282261 2.453608227
H 1.54491878351 1.19014315859 -0.337129432696
H 2.79499394497 -0.178836076749 1.53153969611
O -2.096640352 -0.5889200134 0.09360588433
H -2.54174583227 -1.23084205381 1.68809075944
H -2.56331948928 -0.566916266522 -0.741833076906
O -2.550908463 -1.563665524 2.58551843
H -3.46255811003 -1.81086097697 2.7405060718
H -1.74522591154 -0.430814087174 3.69226531433
O -0.9361056181 -1.306328727 -3.942188704
H -0.247241355949 -0.684551586133 -4.17690354253
H -2.11603901553 -0.563646697485 -3.00678037724
O 0.5902622579 -2.999327411 -2.482328029
H 0.570974661585 -3.95591857603 -2.51049133171
H -0.475122340564 -2.02015972188 -3.50153967293
O 0.51276349 2.585146955 -2.935222923
H -0.433319226389 2.6679364548 -2.8156184395
H 0.867597029786 2.58102339208 -2.04623023728
