75
./arbalign_output/no_reflection/25-2-aligned_to-25-1.xyz
O 18.42984 -8.24931 -7.55381
H 18.62688 -9.19286 -7.32417
H 19.0774 -7.72311 -7.06825
O 15.6713 -7.48469 -7.84967
H 18.48373 -8.39791 -9.44074
H 16.6041 -7.67891 -7.64106
O 18.75937 -11.37471 -10.07502
H 14.52191 -10.1261 -8.61875
H 18.67771 -10.41502 -10.31105
O 16.39078 -13.8419 -8.35291
H 16.31101 -13.05039 -9.86214
H 19.36496 -14.62745 -9.28441
O 18.68437 -10.90821 -7.36206
H 18.7001 -11.12904 -8.32414
H 19.23689 -11.62162 -6.9403
O 16.24765 -11.74722 -6.60013
H 15.59594 -11.08166 -6.91414
H 20.31861 -13.36686 -7.32628
O 13.29098 -14.34259 -5.88764
H 16.02532 -12.9663 -5.2779
H 18.64231 -16.49849 -7.81981
O 12.23913 -12.20567 -10.05101
H 15.55342 -15.17632 -12.99332
H 11.34944 -12.17136 -10.42425
O 16.02407 -17.89585 -8.0833
H 16.88416 -17.69018 -7.62827
H 15.85996 -18.83339 -7.92689
O 14.45147 -9.95658 -7.65921
H 20.00268 -12.49413 -9.71268
H 14.79136 -9.03705 -7.56552
O 16.39596 -12.57825 -10.7282
H 16.2218 -13.28472 -11.38116
H 17.95136 -11.80623 -10.43983
O 15.93924 -13.80611 -4.78112
H 13.05117 -13.49174 -6.33931
H 16.29466 -13.14158 -7.66795
O 13.23121 -14.69458 -10.43692
H 13.98543 -14.78384 -11.04991
H 13.54844 -15.09912 -9.60833
O 15.60355 -8.04753 -10.73184
H 15.09212 -8.88469 -10.75888
H 15.24961 -7.50502 -11.44696
O 18.38619 -17.09967 -7.08513
H 18.34542 -16.48755 -6.32802
H 12.54077 -14.53513 -5.31185
O 18.39432 -8.7083 -10.36371
H 15.65069 -7.45911 -8.82236
H 17.48439 -8.45407 -10.60524
O 18.62015 -15.23574 -9.09576
H 12.39456 -12.12152 -8.12036
H 17.68384 -16.31173 -10.25171
O 16.99588 -16.83706 -10.70945
H 16.54711 -17.30226 -9.98224
H 14.85541 -16.5475 -7.90387
O 20.01929 -13.03617 -6.46111
H 19.44217 -13.73433 -6.07818
H 18.69945 -15.05501 -4.29911
O 14.49763 -10.55609 -10.44967
H 13.63556 -11.01823 -10.44179
H 15.1574 -11.26186 -10.62042
O 14.42055 -15.67617 -8.02124
H 15.6666 -14.49312 -8.18816
H 13.95932 -15.45377 -7.18947
O 18.35695 -14.90983 -5.19069
H 15.05965 -14.12994 -5.0458
H 17.43237 -14.57836 -5.04854
O 20.52493 -13.24319 -9.32571
H 21.34126 -13.28239 -9.83873
H 17.13232 -11.35656 -6.80979
O 12.6376 -12.06909 -7.17838
H 17.89543 -14.65534 -8.76878
H 13.17169 -11.25328 -7.12733
O 15.60341 -14.9448 -12.05747
H 16.09781 -15.68819 -11.62887
H 12.56493 -13.12176 -10.23282
