37
./arbalign_output/no_reflection/257_FGG215-aligned_to-252_FGG55.xyz
O -3.107 0.546 -1.212
C -2.938 0.975 0.04
O -3.045 2.14 0.347
H -2.428 0.379 2.015
C -1.653 -1.952 -0.189
H -3.057 -0.441 -1.218
H -3.556 -0.71 1.19
N -1.542 -0.998 0.747
H -0.69 -3.604 -1.091
C -2.648 -0.113 1.073
O -2.638 -2.061 -0.932
C -0.477 -2.912 -0.283
H -0.391 -3.461 0.656
H -0.699 -0.998 1.313
N 0.779 -2.244 -0.545
H 0.955 0.901 2.104
C 1.51 -1.683 0.434
O 1.132 -1.622 1.609
C 2.861 -1.137 -0.017
N 2.916 -1.083 -1.477
H 1.2 -2.235 -1.464
H 3.597 -1.875 0.314
H 3.157 0.01 1.776
C 3.157 0.194 0.702
H 3.878 -1.061 -1.789
H 2.486 -0.219 -1.794
C 2.26 2.008 -0.814
C 2.146 1.248 0.357
H 4.159 0.513 0.411
C 1.032 1.459 1.18
H 3.146 1.908 -1.431
C 0.046 2.374 0.826
H -0.81 2.532 1.466
C 0.147 3.088 -0.367
H -0.639 3.774 -0.65
C 1.265 2.915 -1.179
H 1.368 3.487 -2.091
