16
./arbalign_output/no_reflection/RUQVAB_fixed_backbone-aligned_to-ALPRAL10_2_fixed_backbone.xyz
N 9.655 4.653 2.599
C 9.664 3.273 2.107
C 8.236 2.891 1.769
O 7.605 3.522 0.925
N 7.707 1.87 2.447
C 6.318 1.462 2.223
C 5.315 2.316 2.986
O 4.275 2.67 2.417
N 5.495 2.607 4.283
C 6.628 2.292 5.165
C 7.643 3.431 5.113
O 7.285 4.605 5.14
N 8.955 3.112 5.084
C 9.924 4.22 5.046
C 9.743 5.14 3.833
O 9.733 6.365 4.037
