32
./arbalign_output/no_reflection/UZUKUW_fixed_backbone-aligned_to-EVAPUM_fixed_backbone.xyz
O 5.466 -13.441 -0.034
N 4.045 -17.8 -4.212
C 3.468 -18.605 -5.111
C 4.795 -14.961 2.071
O 5.225 -15.022 -4.513
N 3.451 -15.595 -2.065
C 3.915 -14.296 -1.602
C 3.889 -18.418 -6.575
O 6.978 -14.959 2.983
N 4.117 -15.046 0.769
C 6.266 -15.317 2.057
C 4.541 -14.247 -0.228
O 9.974 -15.477 -0.442
N 6.733 -16.052 1.043
C 8.814 -15.332 -0.116
C 8.163 -16.307 0.849
O 8.795 -12.892 -3.8
N 8.029 -14.349 -0.587
C 8.335 -13.665 -2.977
C 8.508 -13.349 -1.508
O 5.429 -16.584 -1.633
N 7.709 -14.789 -3.279
C 6.236 -15.049 -5.208
C 7.604 -15.336 -4.622
O 2.786 -15.91 -7.115
N 6.179 -14.949 -6.546
C 3.999 -16.006 -7.034
C 4.894 -14.795 -7.206
O 2.654 -19.476 -4.821
N 4.601 -17.186 -6.824
C 3.758 -17.91 -2.776
C 4.287 -16.634 -2.114
