51
./arbalign_output/no_reflection/Wat_17_cluster_417896_lowest_10-aligned_to-Wat_17_cluster_417889_lowest_3.xyz
O 11.524696 1.07631969 -4.1746606
H 11.798638 0.45151195 -3.4913237
H 13.407502 -1.0028365 -5.4824771
O 9.1269722 -4.1601643 -6.1831855
H 7.5516238 -3.3407001 -5.659203
H 9.1276111 -4.2138981 -7.9640522
O 6.8793406 -2.7299153 -5.3263115
H 7.4424157 -2.2708602 -3.7469308
H 9.5706262 -4.7543997 -5.5673837
O 11.564033 -0.793177 -8.1523037
H 12.178923 -0.1699382 -7.7519416
H 9.8084325 -0.9350038 -8.820611
O 8.8909044 -1.2350082 -8.8694286
H 6.6283011 0.20892848 -7.247941
H 12.056636 -2.6284291 -8.5582523
O 13.266771 -1.8188222 -4.9855761
H 10.579066 0.92354542 -4.3034844
H 12.573941 0.93036658 -5.5838823
O 12.346702 -1.0625706 -2.4441101
H 8.5414781 -0.4701603 -3.9247663
H 13.112294 -1.5678162 -4.0653576
O 10.482803 -3.0123791 -2.6079635
H 11.673194 -1.7669229 -2.4524147
H 12.728339 -1.0583385 -1.5706137
O 12.043251 -3.5935628 -8.5374803
H 9.6153469 -3.3222339 -6.1132688
H 6.9058179 -1.9595338 -5.907598
O 10.536811 -1.8545255 -5.8204984
H 8.3440837 0.07601562 -5.3661932
H 10.069728 -1.1640967 -5.3352904
O 7.8605895 -1.9240791 -2.9383158
H 7.1908149 -1.9228918 -2.2596516
H 9.5698938 -2.7150332 -2.7050163
O 8.9296941 0.10485109 -4.5972795
H 13.151015 -3.5775859 -5.6102356
H 11.42525 -1.935088 -5.4515008
O 13.184845 0.70289838 -6.3078832
H 13.808445 1.42106891 -6.3746175
H 11.117717 -1.2088593 -7.3961353
O 7.3007397 -0.3462281 -6.8617458
H 7.864592 -0.6481682 -7.5959701
H 11.148436 -3.839463 -8.7985429
O 12.78703 -4.4005932 -5.9611544
H 12.569239 -4.2180109 -6.886558
H 11.587723 -5.0282206 -4.9023461
O 10.863401 -5.308422 -4.3110747
H 11.095907 -6.1733593 -3.9852838
H 10.582872 -3.8009138 -3.1545922
O 9.2128372 -4.0737004 -8.9224538
H 8.764841 -4.799983 -9.3483657
H 8.9337177 -2.1894042 -9.0074148
