27
./arbalign_output/no_reflection/Wat_9_cluster_1195_lowest_12-aligned_to-Wat_9_cluster_1184_lowest_1.xyz
O -14.3135796 -18.703853 30.9602222
H -13.5804787 -18.143146 30.6726685
H -15.1158743 -18.186693 30.8124619
O -16.4748363 -16.865133 30.7954922
H -14.3993282 -15.621915 28.6668415
H -16.0240726 -16.247015 30.1915398
O -14.9544554 -16.050594 33.0819359
H -12.9550066 -13.794328 31.9354057
H -13.8675642 -15.026494 32.14748
O -13.2957582 -14.572594 31.5034199
H -14.5487528 -16.862688 33.4073181
H -15.5919218 -16.325071 32.408638
O -15.0019655 -15.177492 29.280262
H -17.3950787 -16.867557 30.5484905
H -14.4393425 -14.771811 29.9514732
O -13.023859 -16.596656 27.9011497
H -13.9858608 -18.777341 32.6716576
H -12.9166489 -17.382692 27.3709259
O -12.101862 -16.933418 30.498724
H -12.4363403 -16.086778 30.825676
H -12.5599737 -16.774271 28.7351112
O -11.1050167 -18.038011 32.841629
H -11.9612007 -18.264162 33.2355385
H -11.6049118 -17.325305 31.229372
O -13.7497606 -18.639291 33.6079407
H -10.4688587 -18.6319 33.2326889
H -14.1868849 -19.324077 34.1067581
