66
./arbalign_output/no_reflection/Wat_22_cluster_1179800_2nd_lowest-aligned_to-Wat_22_cluster_1179799_1st_lowest.xyz
O 2.2311629 5.33107758 -2.59341579
H 1.967698 4.39691287 -2.67973648
H 2.2294022 2.13189948 -2.43691705
O 4.0510257 3.02399012 2.44634
H 6.1208562 1.8789659 0.4140034
H 5.5271833 2.05160169 1.827632
O 2.5834138 1.54522841 0.6899918
H 2.5989819 0.74171817 1.2248454
H 3.5703849 2.53272368 1.7610892
O 1.4805881 2.73041265 -2.57579596
H 2.0657525 5.74498608 -3.43583008
H 0.8968279 2.60910376 -1.82031992
O 0.262813 2.79402054 0.1086074
H 1.4036558 5.55782151 -0.91943157
H 0.4748 3.7342358 0.0163922
O 3.6586632 1.15435015 -1.84548018
H 3.7654598 0.20634569 -1.6734205
H 2.99678 1.36184728 -0.16405796
O 1.199081 -1.9017065 0.3581605
H 0.5313133 -1.1953387 0.4139723
H -0.48317535 0.99127639 0.3731018
O 3.4885058 5.5644811 1.5204467
H 3.1453017 5.99086405 2.3143109
H 3.854512 5.1541518 -1.62307597
O 4.5983685 4.99018497 -1.03045248
H 4.3345517 5.33078293 -0.16690614
H 5.505526 3.52356168 -1.19383953
O 3.7537549 -1.4085207 -0.92071266
H 2.8781588 -1.6277278 -0.5791762
H 0.7221155 -2.7146905 0.2125012
O -0.17478651 6.02220393 2.4467797
H 0.1167883 5.98066092 1.5262839
H 1.2489966 6.2975671 3.4342159
O -0.60545523 0.10235435 0.7239639
H -1.78039415 0.19557181 4.0994083
H -0.87670179 0.21336616 1.6447411
O 2.7378971 -0.7058804 2.362901
H 2.1969744 -1.2629099 1.7864561
H 1.9228468 0.16479756 3.7796332
O 6.0715353 1.46576219 1.2847661
H 5.6529739 -0.2063098 1.3972951
H 6.0815996 -1.646946 1.7641846
O 1.9114313 3.45470222 4.1839932
H 3.7858511 4.68807987 1.8078122
H 3.4238631 3.12284159 3.1744877
O -0.53562404 3.23824249 2.7714794
H -0.49455605 5.13413459 2.655481
H -0.32609016 3.0849017 1.8401368
O -1.17971424 0.59126656 3.4741509
H -0.91879271 2.41409424 3.0946668
H -0.28827437 0.54244017 3.8661707
O 1.3531321 0.63131645 4.4070413
H 1.0803905 3.36720376 3.6945097
H 1.6960762 1.52809586 4.4943896
O 5.9674943 2.6717163 -1.29474707
H 6.7399457 2.84155186 -1.82773247
H 4.5154596 1.58825299 -1.7483697
O 1.133065 5.43266295 -0.00189973
H 1.0927419 2.34876098 0.3530305
H 1.9463331 5.45614265 0.523876
O 5.3439388 -1.1286678 1.4546193
H 3.6633654 -0.9153816 2.1786886
H 4.3496705 -1.4113032 -0.16091089
O 2.1045557 6.30700455 3.9005047
H 2.0454191 4.40402733 4.2908744
H 2.0878448 7.05420132 4.4922467
