66
./arbalign_output/no_reflection/Wat_22_cluster_1179808_lowest_10-aligned_to-Wat_22_cluster_1179802_lowest_4.xyz
O -14.550526 8.3179061 -15.6676053
H -10.556519 4.34617541 -10.8403275
H -10.970754 5.74889623 -11.341453
O -14.048326 9.97936488 -8.94720574
H -15.72625 10.7167965 -11.6095019
H -15.692756 11.2749874 -15.0596699
O -11.741026 8.61722185 -16.2544762
H -8.9477964 5.72930992 -12.4451001
H -11.295905 8.22549069 -17.0017485
O -13.901673 13.5107878 -12.5882918
H -14.486131 10.350812 -8.1852416
H -14.390218 12.8819853 -12.0425185
O -9.1917811 7.48406274 -9.70222415
H -13.705695 12.2549596 -15.4306795
H -10.003514 7.98443199 -9.54506313
O -16.858749 9.52843026 -12.4991171
H -17.788897 9.32641321 -12.4584542
H -16.686257 9.88332057 -13.3919903
O -10.208457 5.19641768 -11.0957562
H -12.0785 10.3941675 -15.8560685
H -13.630596 8.35453057 -15.9509478
O -12.269325 11.2490371 -15.4518077
H -10.061246 10.6891252 -11.8467944
H -14.619046 13.3501144 -16.0291757
O -10.548222 7.78151464 -13.9394051
H -7.928869 6.87115355 -12.62239
H -9.7896439 7.19167297 -13.8126025
O -11.221741 13.6166917 -12.1434935
H -10.885527 11.9475374 -11.4309319
H -11.006611 14.4753317 -11.7889879
O -12.149411 7.02630227 -11.7243006
H -13.04704 7.15714621 -12.0569015
H -15.636226 9.74702877 -15.3218723
O -12.902954 10.2194681 -12.9044075
H -9.4733945 6.62037244 -10.0283171
H -11.161907 7.59268217 -13.2181859
O -14.949857 11.204604 -11.3051945
H -12.468321 9.1826849 -9.34130497
H -14.402758 10.4525972 -9.71525681
O -14.515044 12.7729392 -15.2764862
H -12.150069 10.4414887 -12.3428117
H -14.177033 13.3421879 -13.4983074
O -8.9865278 9.96776804 -13.0936375
H -11.428911 11.6528837 -15.1843059
H -6.4907728 8.42174746 -11.0817524
O -14.480229 7.9595325 -12.8411436
H -15.352437 8.29926701 -12.6113649
H -14.533466 7.99046473 -14.7586349
O -16.173679 10.4511664 -14.9284706
H -12.007757 7.67388108 -11.0179083
H -13.901638 8.73926165 -12.8889262
O -8.4547559 6.22616131 -13.1115898
H -11.299231 8.27975496 -15.4568149
H -9.5504559 9.27248764 -13.4605223
O -9.9920739 12.2956855 -14.3952759
H -9.4882074 11.5675541 -14.0084863
H -10.317254 12.8289032 -13.6589666
O -10.768981 11.0035904 -11.2656569
H -12.729057 10.5858123 -13.7795685
H -11.269434 9.68470667 -10.1755323
O -11.629848 8.90208562 -9.73264919
H -12.181915 13.6146811 -12.304861
H -14.223179 10.9176384 -11.8798696
O -7.3474776 8.35231608 -11.4941138
H -7.9751606 8.09077542 -10.796184
H -8.3027221 9.51482063 -12.5833806
