90
./arbalign_output/no_reflection/Wat_30_cluster_4221227_2nd_lowest-aligned_to-Wat_30_cluster_4221226_1st_lowest.xyz
O 3.66942457 -1.4265566 3.8532729
H 0.82149889 -2.8308356 5.3992015
H 2.84058815 -1.7265792 4.2437981
O -0.0608766 0.30388613 -1.04646844
H 0.91961399 1.45176672 -1.99324572
H 1.49546553 0.2723468 1.5629966
O -3.1475114 -0.1606382 2.5697269
H -3.6096189 0.05414094 1.7488817
H -1.8322594 0.97056928 2.9475697
O 3.55224578 -0.5560059 -0.63867698
H 2.88642191 -1.197614 -0.92404612
H 3.78377146 -0.0445855 -1.42355077
O 2.16281044 -4.2233667 0.7222862
H 2.92045888 -3.6650781 0.9842065
H 4.03758504 -2.1247048 2.2372179
O -2.4850893 -2.959047 2.2013166
H -1.5135572 -2.9551254 2.2003833
H -2.7607739 -3.6829426 2.7581101
O -1.0450686 1.53508497 2.9825533
H 0.02638254 0.40105801 2.052837
H -0.521021 1.31461172 3.767508
O -3.1805412 -2.2583667 -0.43443502
H -2.9733078 -1.1077899 2.5365038
H -3.4657158 -1.342085 -0.30317441
O -4.0721854 0.36928593 -0.0660444
H -1.6521365 -2.2889328 -1.3885432
H -4.0913085 -2.3040845 -2.1397758
O -0.8987516 -2.1593283 -1.98065444
H -3.0117316 -2.6186396 0.4437444
H 0.83420127 -2.5086328 -1.70133281
O -0.4186085 2.18174925 -4.61064791
H -1.3343778 2.10045044 -4.31835351
H -3.8711095 1.31704093 -3.2113779
O 1.04218385 -2.1446398 4.7739393
H 0.73740279 -2.4461777 3.9037571
H 0.76848 -0.2434308 4.948091
O 0.70968369 0.71848229 4.9047647
H 2.58041522 2.05914033 0.899308
H -1.1658565 4.44684649 1.7199978
O 3.3493559 1.40153413 4.0276353
H 1.60031669 1.02494226 4.6910891
H 3.68399842 -0.4714797 3.9872482
O -0.9068432 3.64496883 1.2731484
H -0.9540672 2.92922233 1.9315577
H -1.3451394 1.48575814 -0.8804526
O 4.11525503 -2.5234337 1.3574371
H 4.13631729 -1.8043534 0.7159207
H 1.92584704 -3.236764 -0.88056762
O 2.98631176 1.29492064 1.3385861
H 3.27677804 1.42612332 3.0573156
H 3.96569112 2.08604536 4.2744119
O 1.67848222 3.30513552 0.0600816
H 1.55111667 3.0880925 -0.8726847
H 0.80703025 3.49604218 0.4263832
O 3.74304014 0.9579144 -2.99917584
H 3.28474298 0.67931715 0.6558464
H 4.37976179 1.56041341 -3.37365103
O 1.79093371 -2.5679916 -1.5613428
H -0.3510859 -0.5330778 -1.42730199
H 2.13614869 -1.7979929 -3.27247431
O 0.6340308 -0.1647565 1.557368
H 0.22116461 0.12172929 -0.13988984
H 0.41445419 -1.8677228 1.9120216
O -4.4407289 -2.0063619 -2.98958238
H -3.670055 -1.8174737 -3.54221648
H -5.2060413 -0.4482251 -2.74836684
O 1.35064619 2.15381007 -2.50452479
H -1.75889 2.77892613 -0.13554664
H 0.77960518 2.31471898 -3.26859464
O -2.9462294 1.55213894 -3.35305252
H -2.6290668 1.87960748 -2.49882277
H -6.3782122 0.55945703 -2.83018831
O 2.21551875 -1.2187905 -4.04009378
H 2.81930508 -0.5125027 -3.77989851
H 0.92907045 -0.7324266 -5.10262662
O -2.0794205 -0.9953038 -4.18292186
H -1.3503153 -0.8767481 -4.8046847
H -1.2590968 -1.8414508 -2.82033668
O -2.0628331 2.13090366 -0.78065126
H -3.3796739 1.02236436 -0.24516881
H -4.7013401 0.44737038 -0.79274184
O 0.20425441 -0.4265816 -5.67648957
H 2.92597027 1.46574104 -2.84839415
H 0.45806943 -0.6335376 -6.57201117
O -5.473221 0.46648973 -2.54559706
H -2.3461216 -0.1097197 -3.89678
H -0.2061809 1.35360343 -5.05937602
O 0.25416366 -2.7865106 2.183048
H 0.86189521 -3.3479587 1.6860801
H 2.47374504 -5.1240769 0.7083442
