75
./arbalign_output/no_reflection/Wat_25_cluster_2243821_lowest_19-aligned_to-Wat_25_cluster_2243818_lowest_16.xyz
O -7.460989 18.8460407 -10.660749
H -8.20032787 18.3964481 -10.232255
H -7.393085 20.588459 -10.241124
O -10.819047 17.7392883 -11.773944
H -8.08178234 17.6761189 -13.536813
H -10.493041 17.6027298 -10.872311
O -7.57221413 18.4907284 -13.443156
H -7.57171631 15.2425356 -10.68036
H -7.45532846 11.8462896 -8.0484008
O -4.81328487 18.0197372 -13.710198
H -5.24272013 12.8703547 -10.862921
H -6.64729977 18.3016911 -13.644985
O -5.73504066 21.3413029 -7.839313
H -5.65397787 22.1708794 -7.3747119
H -6.33756256 21.4971485 -8.5865516
O -4.99161768 17.8044624 -9.9798059
H -4.79897976 17.1430035 -10.65329
H -5.88416433 21.8707752 -12.543142
O -8.82701588 20.9839287 -13.377344
H -10.9729204 18.687418 -11.859288
H -10.26791 20.761322 -12.445782
O -10.063242 21.1620216 -9.2963752
H -9.16421413 21.4425049 -9.5158329
H -10.4403667 19.5070496 -6.6210961
O -4.67943192 14.1786022 -7.9786739
H -4.64798689 19.7913094 -12.831459
H -5.45895147 13.6120844 -7.9380626
O -4.72376633 15.8780184 -11.995975
H -4.20960093 15.1959343 -11.545958
H -4.23884296 17.9023857 -14.463295
O -9.5429945 17.4811115 -9.3473682
H -9.07718658 16.6764107 -9.0815429
H -9.67389584 18.0317268 -8.5653123
O -6.1661396 12.5957165 -10.921922
H -8.03004169 15.4166002 -12.167967
H -6.6347785 13.3482008 -11.30866
O -4.66972065 20.6728992 -12.449326
H -4.68993807 17.2412167 -13.142572
H -3.92604971 13.9948854 -9.5404758
O -7.89856148 15.3388662 -8.8620309
H -7.55752087 18.7454414 -11.616601
H -8.1155653 21.5928574 -13.146536
O -6.60420513 22.5287361 -12.511212
H -5.84848547 18.1990433 -10.20521
H -5.42460823 17.0786076 -8.4161357
O -3.60364556 13.8373985 -10.446559
H -2.73473907 13.4539137 -10.363824
H -4.31950855 20.6006927 -11.547985
O -9.78666782 19.3677406 -7.300981
H -9.93123722 20.0550709 -7.9767212
H -7.13841963 22.0063267 -10.81379
O -11.0565996 20.5698929 -11.906666
H -11.782443 21.0391941 -12.309928
H -10.4853868 20.957346 -10.139323
O -7.32619524 15.0794926 -11.601816
H -6.81258154 12.5280857 -9.2812089
H -5.65473413 15.6165428 -11.919063
O -9.2364912 16.2299118 -13.317404
H -9.74568939 15.7741289 -13.981823
H -9.8660078 16.754261 -12.787376
O -6.99099779 19.0122089 -6.7111983
H -7.93041563 19.1693325 -6.8607697
H -6.52898312 19.7962933 -7.0322423
O -3.86264777 20.3362255 -9.8198823
H -4.35420752 20.727869 -9.0898637
H -4.10112524 19.3980045 -9.8080234
O -5.83835983 16.7018642 -7.6250519
H -4.97684145 15.0572491 -7.7046952
H -6.23385096 17.4503269 -7.1558752
O -7.11774635 12.6780071 -8.3685951
H -8.40265942 20.1285839 -13.530697
H -7.79482508 14.4123983 -8.6155548
O -7.38712454 21.5315495 -10.012002
H -7.19604874 15.8277664 -8.4065713
H -6.24386787 23.3467503 -12.841152
