45
./arbalign_output/no_reflection/Wat_15_cluster_225222_lowest_15-aligned_to-Wat_15_cluster_225216_lowest_9.xyz
O -1.388697 9.0864505 1.27971029
H -1.9377938 7.3059101 1.18203247
H -1.6459473 9.7734279 0.67111623
O 2.11293197 6.2817544 1.41855431
H 1.58990109 10.206728 5.23220015
H 2.30031443 5.77005 2.21456933
O -0.259061 3.8029465 2.90898514
H -1.0772001 4.187726 3.24601293
H 1.2705977 4.2962465 3.55398536
O 1.10125065 7.089025 4.77461338
H 1.0836978 7.620553 3.96430278
H -1.2343835 10.743032 6.12990522
O -2.6626792 5.2021613 3.61525083
H -3.5336449 4.813683 3.61420941
H -1.6182302 12.223231 5.89525127
O 1.2793225 10.652917 4.43517542
H 0.4302856 11.041048 4.68060207
H 0.2922498 8.8205614 2.03143907
O -2.3985276 9.5093498 3.71978068
H -2.1085405 10.262796 4.2479496
H -2.213629 8.7238798 4.25204229
O 0.06031569 4.9074525 0.29134673
H 0.31288841 4.546895 -0.5539784
H 0.81744814 5.4287958 0.61308443
O 2.11979866 4.6842675 3.83448839
H 2.67521739 3.9620609 4.11340427
H 2.56593609 8.6733694 7.18456745
O 1.78635001 8.9165134 6.69241953
H 1.48560739 6.233047 4.55058146
H 1.61628985 8.1966047 6.06027508
O -1.6510229 7.253077 5.26026201
H -1.3624627 8.5507249 6.63802671
H -2.0764343 6.5148901 4.80716896
O -2.1660766 6.3695225 1.23073077
H -1.8101095 9.2909164 2.13578677
H -1.4458994 5.8922429 0.79899961
O -1.0094078 9.3099393 7.12125826
H -0.0520462 9.1837644 7.14897585
H -0.7009389 7.1444468 5.11171389
O -1.2866904 11.445009 5.45607519
H -2.5555679 5.6525812 2.75692606
H -0.216189 4.0437889 1.97420955
O 1.12050235 8.684802 2.50856543
H 1.24698174 9.4571218 3.08049345
H 1.88887942 7.1745166 1.71528614
