36
./arbalign_output/no_reflection/Wat_12_cluster_43583_2nd_lowest-aligned_to-Wat_12_cluster_43582_1st_lowest.xyz
O 23.278745 -4.24310255 -8.1314458
H 23.779909 -3.76916862 -7.4543628
H 22.764999 -3.44315624 -5.1404438
O 25.952653 -5.02188873 -2.7516725
H 23.789489 -5.90302324 -0.5243513
H 25.954351 -4.07266474 -2.9281632
O 23.645347 -5.51400042 -1.3825031
H 22.776039 -6.11977196 -2.9463627
H 24.522766 -5.3856492 -1.7859112
O 21.885585 -3.62313581 -4.7752695
H 22.206836 -5.3114028 -4.1345534
H 21.31607 -3.80929565 -5.5313124
O 20.72532 -4.46755552 -7.2068324
H 21.59489 -4.33785057 -7.6273441
H 21.173288 -6.27682161 -6.6905307
O 24.044416 -6.98061752 -7.7009806
H 20.06998 -4.15411425 -7.8239812
H 23.630083 -5.142591 -8.13764
O 24.966381 -6.04447937 -5.2019043
H 24.752719 -4.26421022 -5.5878534
H 24.849382 -6.44537258 -6.0715022
O 22.987695 -2.85990763 -2.2802949
H 23.093778 -3.71696544 -1.8485814
H 25.832332 -5.45278835 -3.6084806
O 24.507619 -3.34024429 -5.7470326
H 25.793384 -1.42933846 -2.9861466
H 24.566371 -2.36891556 -2.8937327
O 21.642498 -7.07551479 -6.4176068
H 24.195919 -7.72489977 -8.2768964
H 21.82533 -6.96455002 -5.4750161
O 22.497743 -6.19619942 -3.8669078
H 24.132917 -6.18516636 -4.7279233
H 23.170684 -7.11388206 -7.2903246
O 25.435091 -2.24800324 -3.3177399
H 24.917058 -2.82857466 -5.0390462
H 22.421857 -3.01575732 -3.0482862
