27
./arbalign_output/no_reflection/Wat_9_cluster_1185_2nd_lowest-aligned_to-Wat_9_cluster_1184_1st_lowest.xyz
O 15.6958733 15.7798 30.8561897
H 14.8139534 15.473675 30.6087418
H 13.0810823 18.187084 33.2723846
O 11.9065847 17.520961 30.4685345
H 12.2136154 16.608741 30.3940487
H 11.8736267 17.711183 31.4146748
O 14.816083 18.399465 33.1932259
H 16.5023136 19.126075 30.184103
H 15.7372904 16.717163 30.6266727
O 12.1396055 17.936662 33.2773285
H 12.5394459 16.073728 33.3991089
H 11.703433 18.517351 33.894558
O 13.5192804 19.239917 29.124197
H 13.0397043 19.683052 28.4306545
H 12.8802691 18.650322 29.5620556
O 12.9903212 14.889439 30.5841713
H 12.9167576 14.900853 31.5555229
H 12.6354017 14.054414 30.2913494
O 15.763958 18.612983 30.5017796
H 14.9911356 18.878353 29.9732609
H 15.1542368 18.572681 32.3055344
O 15.7173882 15.718178 33.5731354
H 15.2013083 17.554483 33.4593849
H 15.7974749 15.674962 32.6026115
O 12.9245806 15.194013 33.2919083
H 13.8542004 15.282918 33.5396233
H 16.4740753 15.264466 33.9331284
