30
./arbalign_output/no_reflection/Wat_10_cluster_5324_lowest_15-aligned_to-Wat_10_cluster_5323_lowest_14.xyz
O 2.10635948 7.46228409 3.09869862
H 2.96187449 7.50055838 3.55961847
H 3.38841605 8.10026073 6.02659178
O 2.45269442 5.75531816 7.59327173
H 0.85625136 5.53721571 6.86187792
H 2.6145761 6.70247698 7.48573637
O 0.46304375 8.16950893 5.37103128
H 4.16619158 9.39184284 7.52393246
H 0.89243621 8.01054001 4.52091837
O 1.70408177 4.81929827 4.10277319
H 1.75021982 5.65303755 3.61746669
H 1.02645457 4.94691133 4.7800622
O 5.01962519 9.77625847 7.78414345
H 4.98925447 9.86388779 8.73333645
H 6.06908607 9.18016911 6.44712687
O 4.06359053 4.69197321 5.45268106
H -0.6211515 5.07794666 6.85473776
H 3.23991942 4.63173532 4.93505573
O 0.05213365 5.48299217 6.31515169
H 4.52403116 3.8651545 5.33933353
H 3.09394813 5.31655836 7.02096319
O 6.48956299 8.78721809 5.66415691
H 4.44448328 6.44237089 4.92629528
H 7.2102685 9.36733341 5.43327141
O 4.38518143 7.362782 4.63732529
H 2.23395967 7.87651777 2.24918008
H 5.19735432 7.81932688 4.90087414
O 2.84167695 8.43783474 6.75013924
H 0.16259398 7.30354548 5.6749692
H 1.94832206 8.51291656 6.38639212
