24
./arbalign_output/no_reflection/Wat_8_cluster_616_lowest_10-aligned_to-Wat_8_cluster_615_lowest_9.xyz
O -0.3688047 0.88880825 -0.48090547
H -1.1335431 0.46454528 -0.8589142
H 0.40659827 0.58948481 -0.99288905
O 1.7431227 1.41677999 -4.3619709
H 2.33862567 1.38089049 -5.10736609
H 1.50629044 3.77236009 -2.20164704
O 1.84968996 0.2181792 -1.83157039
H 0.04888733 2.75775242 -0.73207551
H 1.7864635 0.45963129 -2.76561308
O 2.16874838 3.79689908 -2.91507292
H 1.88686061 2.28278232 -3.949857
H 2.56592131 0.76148289 -1.47316015
O 0.47839937 3.62061572 -0.78426486
H 1.07168281 3.65562105 -0.02242502
H 0.4484916 0.87298381 1.1527869
O 3.67281318 2.18582344 -0.99134648
H 2.28004336 4.71425819 -3.14973021
H 3.34599876 2.77614689 -1.68125272
O 1.02251267 0.93510437 1.9325889
H 1.37623715 0.05782942 2.0643205
H 1.91255832 2.44421983 1.6489634
O 2.34651375 3.25941205 1.3435884
H 3.35649014 2.56387925 -0.161635
H 2.60756803 3.73947668 2.1248624
