75
./arbalign_output/no_reflection/Wat_25_cluster_2243804_2nd_lowest-aligned_to-Wat_25_cluster_2243803_1st_lowest.xyz
O 12.4981327 8.52682686 -10.288223
H 13.1911945 7.99721479 -9.876831
H 12.6867762 9.44125938 -10.044032
O 15.7814283 9.84482765 -12.516154
H 15.657999 8.152215 -12.02526
H 16.994976 10.2455692 -11.287179
O 19.2710876 12.3749218 -13.66011
H 18.9015198 12.6708021 -12.819191
H 18.5915298 12.5498838 -14.322402
O 18.1229572 6.64260769 -12.91901
H 17.9038486 3.56193471 -14.661706
H 17.2656384 6.77922106 -12.490506
O 13.7901573 6.60858297 -13.75156
H 10.633316 7.74019957 -12.684681
H 15.0234413 10.4327145 -12.409236
O 17.0426407 12.6869211 -15.397932
H 16.92033 12.9911299 -16.293239
H 16.0891876 9.94334126 -13.425879
O 16.524004 10.0304461 -15.194822
H 17.3149357 9.47259045 -15.178184
H 15.7744379 9.48698521 -15.474827
O 14.8053513 7.27986002 -9.148096
H 14.9288197 6.73421001 -8.3767366
H 15.1521664 8.16440296 -8.9285078
O 13.6970339 11.6862211 -12.325233
H 16.408493 13.3826532 -12.360884
H 14.3096275 12.3768263 -12.621529
O 14.3894014 8.41453362 -15.806238
H 18.0446949 5.83540916 -13.442707
H 14.202137 7.80213356 -15.080028
O 19.5734329 8.65896797 -11.466926
H 20.0354652 9.11116409 -12.183766
H 19.1802101 7.87019825 -11.860763
O 13.3239021 11.1885195 -9.70193
H 14.9071836 10.3794727 -9.0193433
H 12.8272686 11.8905897 -9.2898845
O 15.4582481 6.59862089 -17.660884
H 15.4155169 6.43150663 -18.598335
H 14.6712027 7.86737823 -16.550132
O 15.6877985 13.4216785 -13.001583
H 16.0960636 13.2749176 -13.86363
H 16.8192406 11.7396288 -15.388486
O 20.6576519 10.0575962 -13.738012
H 19.4716663 8.97498512 -14.639002
H 21.5751305 10.253933 -13.906565
O 17.9360294 13.0584679 -11.244742
H 13.4240675 11.4296036 -10.640007
H 18.2196884 13.5816364 -10.499576
O 18.7371941 8.4317379 -14.949907
H 18.5127239 7.82438517 -14.2287
H 18.3651638 7.19020844 -16.283268
O 15.6380873 9.81137371 -8.7446565
H 17.868 12.1395569 -10.933035
H 16.4058437 10.0625858 -9.2752609
O 15.084013 4.79715824 -15.436605
H 14.5402937 5.31069279 -14.823165
H 12.1689224 9.44522572 -13.819866
O 17.6734543 4.48675966 -14.685921
H 16.7252522 4.53405142 -14.904918
H 15.095787 5.29907608 -16.260294
O 18.018116 6.43300533 -16.773567
H 18.0296192 5.69749784 -16.148551
H 16.4005966 6.57814455 -17.413961
O 11.5526581 7.98151588 -12.760063
H 11.8666468 8.17628765 -11.858709
H 12.9531279 6.96860456 -13.434034
O 17.6568737 10.4253759 -10.601971
H 18.3893852 9.81585407 -10.771453
H 20.1884747 10.9106817 -13.70664
O 12.6211557 10.1399908 -14.316034
H 13.163126 9.68048668 -14.96775
H 13.266614 11.274025 -13.088704
O 15.6539145 7.20644617 -11.8086
H 15.4064741 7.12654495 -10.879742
H 14.4377537 6.73861504 -13.043646
