39
./arbalign_output/no_reflection/Wat_13_cluster_86224_2nd_lowest-aligned_to-Wat_13_cluster_86223_1st_lowest.xyz
O -8.2291517 -1.86986375 -8.87874413
H -8.5226717 -2.78892183 -8.88405991
H -9.0536737 -5.36062813 -9.02559948
O -4.7112164 0.4472158 -9.00016117
H -8.5228099 2.715569 -11.0243473
H -5.6060895 0.6012861 -8.64612579
O -9.0011444 -4.38752413 -14.0458097
H -5.9150733 -3.92839122 -10.2958117
H -7.3060379 -4.19926786 -13.7368975
O -10.084449 -3.3488009 -11.7791433
H -9.8186502 -2.42431045 -11.6858644
H -9.7772913 -3.79847217 -10.9825525
O -6.3036599 -1.48677814 -12.3176403
H -6.2943038 -2.29352427 -12.8458824
H -5.8383488 -4.47895432 -14.1408453
O -5.5623087 -2.15271235 -9.7007494
H -5.2420826 1.0055856 -10.776041
H -5.0859112 -1.3605907 -9.42499256
O -5.7432365 1.1814236 -11.5824366
H -8.0249776 -1.06080937 -11.8200769
H -5.8439817 0.3263149 -12.0224791
O -8.8647565 -0.83274078 -11.394207
H -7.7383527 1.2083988 -8.99378395
H -8.8396358 0.117922 -11.2324543
O -6.3782444 -4.052876 -13.4805012
H -6.3630104 -4.56204891 -11.6289949
H -5.9834256 -1.73660493 -11.4379959
O -7.3181433 0.7383745 -8.26225376
H -8.5265407 -1.49305296 -9.7208128
H -7.7110948 -0.14465743 -8.25571442
O -8.8457098 -4.55206299 -9.4855547
H -6.4524297 -2.07480001 -9.32529736
H -7.9799079 -4.68500662 -9.91175175
O -6.397561 -4.67675781 -10.6715794
H -9.4520645 -4.0376792 -13.2576828
H -9.6842842 -4.5567174 -14.6880817
O -8.2478904 1.8464795 -10.7457228
H -7.3499884 1.7069808 -11.0979185
H -4.0996217 0.8496536 -8.3897953
