84
./arbalign_output/no_reflection/Wat_28_cluster_3649374_lowest_17-aligned_to-Wat_28_cluster_3649363_lowest_6.xyz
O -1.34057388 1.8180784 -2.9690597
H -2.76438718 2.84589 -2.0286523
H -1.20161861 1.4699629 -2.0732088
O -3.1186025 -0.08901908 -4.0674206
H -3.57895783 -0.1548708 -4.899177
H -2.33048444 -1.46756885 -3.0646041
O 2.0555233 -0.35515171 1.99024356
H 1.662518 0.208373 2.66667426
H 1.3368472 -0.69702968 1.4364708
O -0.74972381 -2.80779437 2.38125497
H -0.00104364 -3.4089374 2.49277213
H -0.53473349 -2.28184591 1.59467754
O 0.0031713 3.3720622 2.06720322
H -0.8997656 3.5670314 1.7892547
H 0.5585813 3.4284013 1.27852669
O -1.93963687 -2.01592453 -2.3745835
H -2.23244281 -4.24695381 -0.1319192
H -2.88892382 -1.44650474 -0.8822911
O 5.5683935 -0.92502919 -0.1425139
H 5.2718213 -1.22974463 -1.0190611
H 4.3841693 -2.1078177 0.86309094
O -3.1733977 -3.56945392 1.39552672
H -2.34153256 -3.34290042 1.84703363
H -3.72191834 -4.01686266 2.03431734
O 2.6668136 -3.59497023 -1.2454635
H 1.4493473 -2.56225417 -2.0985585
H 3.9016832 -2.50102503 -2.2166474
O 1.4601972 2.9280463 -0.2871833
H 2.9569624 0.5477103 0.75063365
H 2.2418883 2.3797974 -0.132893
O 4.4411807 -1.74088763 -2.4725251
H 2.7758162 0.5324195 -1.6436145
H 3.8212235 -1.04276941 -2.7193833
O -1.50187947 -0.33461138 3.54828628
H -0.71232308 0.1879021 3.73382814
H -3.12882156 0.1956043 0.93647466
O 3.4456057 0.9633544 0.02402865
H 6.5215457 -0.92184867 -0.1596353
H 4.2862242 0.4928272 -0.0215334
O 0.8111672 -1.88344484 -2.357717
H -0.05307547 1.793896 -0.1801099
H 1.3129326 -1.06874253 -2.4990474
O -2.74309802 3.6012444 1.25979977
H -1.43608593 1.226366 0.31650429
H -2.89904075 2.6552512 1.43171159
O 2.464926 0.3365989 -2.539221
H 2.0914468 1.1568583 -2.8799811
H 1.2914654 3.4613922 -3.8188009
O 1.1796403 2.8138329 -3.1278124
H 0.257581 2.5053471 -3.1753456
H 1.4011307 3.0566185 -1.2419121
O 0.7648065 1.3847784 3.7552866
H 0.4786929 2.1193544 3.18381075
H 1.0783395 1.7744341 4.56739695
O -3.4771084 -1.21490416 -0.1492762
H -1.8078562 -3.68361367 -1.5004298
H -3.5329666 -2.0021757 0.40527885
O 0.7921841 -5.49459839 -0.4169019
H 1.286888 -4.8370144 1.32278913
H 2.0916389 -4.34415472 -1.0432341
O -3.54151439 3.0306247 -1.4883316
H -1.88736495 1.1809136 -3.4434221
H -3.21527516 3.32975 -0.6326087
O 0.1298941 -1.29293907 0.28417488
H 0.4164627 -1.66570364 -0.5561957
H -0.26393504 -0.4373081 0.06172819
O 1.5121304 -4.37718725 2.14183074
H 0.7280736 -6.4283898 -0.6001754
H 2.3171653 -3.88203703 1.95299899
O -1.65121935 -4.41005612 -0.8839517
H -0.08612823 -5.1151541 -0.5972145
H -1.20435678 -1.2229047 3.31310813
O -4.72745901 0.5533283 -2.0098087
H -4.48966849 -0.04130798 -1.2882615
H -4.44380283 1.4427777 -1.7508996
O -2.79574845 0.904997 1.50230606
H -3.41325542 4.0804317 1.74204932
H -3.7847407 0.1370339 -3.3910079
O 3.5870265 -2.53359779 1.2001966
H 3.0730536 -1.82075399 1.60680108
H 2.9579213 -3.23724453 -0.3943368
O -0.76404367 1.1710985 -0.3760339
H -0.97782728 -1.94194848 -2.4627863
H -2.39747245 0.4905055 2.28278133
