28
./arbalign_output/no_reflection/ZOHMIS_fixed_backbone-aligned_to-TALVAD_fixed_backbone.xyz
N -1.789 6.025 -15.336
C -2.958 6.711 -14.798
C -0.207 6.568 -13.533
O 0.372 5.561 -15.596
N 0.639 5.691 -12.782
C -0.545 5.996 -14.915
C 0.369 4.369 -12.652
O -0.566 3.852 -13.246
N 0.393 2.826 -10.867
C 1.269 3.602 -11.741
C 0.796 2.022 -9.899
O 2.004 1.794 -9.68
N -0.9 2.476 -8.232
C -0.267 1.364 -9.01
C -0.961 2.448 -6.895
O -0.411 1.594 -6.206
N -3.242 4.769 -13.265
C -3.975 3.974 -12.298
C -1.792 3.559 -6.226
O -3.948 3.209 -8.032
N -2.307 4.54 -7.148
C -3.347 4.29 -7.971
C -3.457 4.356 -10.926
O -2.331 4.0 -10.549
N -4.242 5.059 -10.118
C -3.76 5.489 -8.815
C -3.739 5.898 -13.731
O -4.88 6.304 -13.495
