37
aligned by OTMol
O       -3.104227     1.427034     1.918340
C       -3.077413     0.710204     0.943951
O       -3.181450     1.191288    -0.297648
H       -3.053916     0.447174    -0.936940
C       -2.933928    -0.804233     1.042505
H       -3.795505    -1.271732     0.561410
H       -2.920525    -1.067853     2.093852
N       -1.717900    -1.307308     0.428427
H       -0.967283    -1.703308     0.994344
C       -1.574261    -1.371527    -0.901327
O       -2.406281    -0.921101    -1.702155
C       -0.325880    -2.097017    -1.385647
H       -0.387751    -3.136219    -1.058379
H       -0.340180    -2.062677    -2.469551
N        0.925870    -1.540626    -0.917084
H        1.527489    -1.010476    -1.533130
C        1.397322    -1.742409     0.325087
O        0.754061    -2.303434     1.220258
C        2.795480    -1.208059     0.579691
N        3.515115    -1.034522    -0.679995
H        3.800803    -1.938367    -1.041360
H        4.368002    -0.512124    -0.514895
H        3.259880    -1.928150     1.259167
C        2.688464     0.131907     1.329550
H        3.704659     0.502979     1.487830
H        2.264193    -0.077340     2.312299
C        1.852910     1.164018     0.627552
C        2.341493     1.868167    -0.478605
H        3.351569     1.691964    -0.823808
C        1.545013     2.801471    -1.138172
H        1.940035     3.336288    -1.991926
C        0.250143     3.055593    -0.690377
H       -0.368143     3.784805    -1.195517
C       -0.243681     2.378640     0.422918
H       -1.236261     2.588930     0.792594
C        0.551930     1.433206     1.068661
H        0.165154     0.913816     1.937078
