./ArbAlign_Supporting-Information/Coordinates/FGG-Tripeptide/252_FGG55.xyz
 OpenBabel04142505293D

 37 37  0  0  1  0  0  0  0  0999 V2000
   -3.0650    0.1170   -2.3270 O   0  0  0  0  0  0  0  0  0  0  0  0
   -3.0290   -0.0320   -1.1290 C   0  0  0  0  0  0  0  0  0  0  0  0
   -3.1550    0.9920   -0.2740 O   0  0  0  0  0  0  0  0  0  0  0  0
   -2.9900    0.6580    0.6420 H   0  0  0  0  0  0  0  0  0  0  0  0
   -2.8460   -1.3960   -0.4690 C   0  0  0  0  0  0  0  0  0  0  0  0
   -2.8550   -2.1470   -1.2510 H   0  0  0  0  0  0  0  0  0  0  0  0
   -3.6770   -1.5740    0.2170 H   0  0  0  0  0  0  0  0  0  0  0  0
   -1.5950   -1.5070    0.2610 N   0  0  0  0  0  0  0  0  0  0  0  0
   -0.8480   -2.1110   -0.0720 H   0  0  0  0  0  0  0  0  0  0  0  0
   -1.4020   -0.8900    1.4370 C   0  0  0  0  0  0  0  0  0  0  0  0
   -2.2290   -0.1220    1.9470 O   0  0  0  0  0  0  0  0  0  0  0  0
   -0.0850   -1.2190    2.1280 C   0  0  0  0  0  0  0  0  0  0  0  0
   -0.0400   -2.2920    2.3150 H   0  0  0  0  0  0  0  0  0  0  0  0
   -0.0750   -0.6860    3.0730 H   0  0  0  0  0  0  0  0  0  0  0  0
    1.0900   -0.8450    1.3640 N   0  0  0  0  0  0  0  0  0  0  0  0
    1.4780    0.0780    1.4930 H   0  0  0  0  0  0  0  0  0  0  0  0
    1.5240   -1.5740    0.3110 C   0  0  0  0  0  0  0  0  0  0  0  0
    0.9520   -2.6050   -0.0590 O   0  0  0  0  0  0  0  0  0  0  0  0
    2.7560   -1.0480   -0.4200 C   0  0  1  0  0  0  0  0  0  0  0  0
    3.4820   -2.0910   -1.1230 N   0  0  0  0  0  0  0  0  0  0  0  0
    2.8070   -2.6310   -1.6550 H   0  0  0  0  0  0  0  0  0  0  0  0
    3.8630   -2.7460   -0.4500 H   0  0  0  0  0  0  0  0  0  0  0  0
    3.4290   -0.5860    0.3050 H   0  0  0  0  0  0  0  0  0  0  0  0
    2.3210    0.0330   -1.4270 C   0  0  0  0  0  0  0  0  0  0  0  0
    3.2200    0.3300   -1.9680 H   0  0  0  0  0  0  0  0  0  0  0  0
    1.6340   -0.4180   -2.1470 H   0  0  0  0  0  0  0  0  0  0  0  0
    1.6750    1.2080   -0.7520 C   0  0  0  0  0  0  0  0  0  0  0  0
    2.4330    2.0270    0.0940 C   0  0  0  0  0  0  0  0  0  0  0  0
    3.5000    1.8590    0.1830 H   0  0  0  0  0  0  0  0  0  0  0  0
    1.8340    3.0590    0.8150 C   0  0  0  0  0  0  0  0  0  0  0  0
    2.4350    3.6830    1.4630 H   0  0  0  0  0  0  0  0  0  0  0  0
    0.4650    3.2910    0.6900 C   0  0  0  0  0  0  0  0  0  0  0  0
   -0.0030    4.0910    1.2470 H   0  0  0  0  0  0  0  0  0  0  0  0
   -0.2970    2.4990   -0.1680 C   0  0  0  0  0  0  0  0  0  0  0  0
   -1.3570    2.6730   -0.2830 H   0  0  0  0  0  0  0  0  0  0  0  0
    0.3070    1.4620   -0.8790 C   0  0  0  0  0  0  0  0  0  0  0  0
   -0.2920    0.8490   -1.5430 H   0  0  0  0  0  0  0  0  0  0  0  0
  1  2  2  0  0  0  0
  2  5  1  0  0  0  0
  2  3  1  0  0  0  0
  3  4  1  0  0  0  0
  5  7  1  0  0  0  0
  5  8  1  0  0  0  0
  6  5  1  0  0  0  0
  8 10  1  0  0  0  0
  9  8  1  0  0  0  0
 10 11  2  0  0  0  0
 10 12  1  0  0  0  0
 12 13  1  0  0  0  0
 12 14  1  0  0  0  0
 15 16  1  0  0  0  0
 15 12  1  0  0  0  0
 17 15  1  0  0  0  0
 18 17  2  0  0  0  0
 19 23  1  1  0  0  0
 19 17  1  0  0  0  0
 20 22  1  0  0  0  0
 20 19  1  0  0  0  0
 21 20  1  0  0  0  0
 24 27  1  0  0  0  0
 24 19  1  0  0  0  0
 25 24  1  0  0  0  0
 26 24  1  0  0  0  0
 27 28  1  0  0  0  0
 28 29  1  0  0  0  0
 28 30  2  0  0  0  0
 30 31  1  0  0  0  0
 32 30  1  0  0  0  0
 32 33  1  0  0  0  0
 34 32  2  0  0  0  0
 35 34  1  0  0  0  0
 36 27  2  0  0  0  0
 36 34  1  0  0  0  0
 37 36  1  0  0  0  0
M  END
$$$$
