./ArbAlign_Supporting-Information/Coordinates/FGG-Tripeptide/254_FGG300.xyz
 OpenBabel04142505293D

 37 37  0  0  1  0  0  0  0  0999 V2000
   -1.2430   -1.4850    0.2850 O   0  0  0  0  0  0  0  0  0  0  0  0
   -2.2190   -2.0100   -0.2040 C   0  0  0  0  0  0  0  0  0  0  0  0
   -2.4520   -3.3350   -0.1580 O   0  0  0  0  0  0  0  0  0  0  0  0
   -1.7100   -3.7230    0.3300 H   0  0  0  0  0  0  0  0  0  0  0  0
   -3.3210   -1.2960   -0.9620 C   0  0  0  0  0  0  0  0  0  0  0  0
   -4.2730   -1.6100   -0.5410 H   0  0  0  0  0  0  0  0  0  0  0  0
   -3.2870   -1.6240   -1.9990 H   0  0  0  0  0  0  0  0  0  0  0  0
   -3.1940    0.1300   -0.8820 N   0  0  0  0  0  0  0  0  0  0  0  0
   -2.4740    0.5820   -1.4370 H   0  0  0  0  0  0  0  0  0  0  0  0
   -3.4560    0.7170    0.3250 C   0  0  0  0  0  0  0  0  0  0  0  0
   -4.0710    0.1620    1.2240 O   0  0  0  0  0  0  0  0  0  0  0  0
   -2.8300    2.0950    0.4750 C   0  0  0  0  0  0  0  0  0  0  0  0
   -3.2900    2.6000    1.3170 H   0  0  0  0  0  0  0  0  0  0  0  0
   -2.9510    2.6870   -0.4310 H   0  0  0  0  0  0  0  0  0  0  0  0
   -1.4120    1.9220    0.7260 N   0  0  0  0  0  0  0  0  0  0  0  0
   -1.0810    1.6660    1.6480 H   0  0  0  0  0  0  0  0  0  0  0  0
   -0.5560    1.6370   -0.2770 C   0  0  0  0  0  0  0  0  0  0  0  0
   -0.8630    1.6970   -1.4700 O   0  0  0  0  0  0  0  0  0  0  0  0
    0.8420    1.2400    0.1880 C   0  0  1  0  0  0  0  0  0  0  0  0
    0.7630    0.6800    1.5350 N   0  0  0  0  0  0  0  0  0  0  0  0
    1.6970    0.5740    1.9130 H   0  0  0  0  0  0  0  0  0  0  0  0
    0.3640   -0.2530    1.4750 H   0  0  0  0  0  0  0  0  0  0  0  0
    1.4260    2.1630    0.2530 H   0  0  0  0  0  0  0  0  0  0  0  0
    1.4920    0.3290   -0.8630 C   0  0  0  0  0  0  0  0  0  0  0  0
    0.8790   -0.5680   -0.9620 H   0  0  0  0  0  0  0  0  0  0  0  0
    1.4810    0.8440   -1.8220 H   0  0  0  0  0  0  0  0  0  0  0  0
    2.8900   -0.0330   -0.4600 C   0  0  0  0  0  0  0  0  0  0  0  0
    3.1590   -1.2330    0.2050 C   0  0  0  0  0  0  0  0  0  0  0  0
    2.3500   -1.9330    0.3750 H   0  0  0  0  0  0  0  0  0  0  0  0
    4.4500   -1.5410    0.6330 C   0  0  0  0  0  0  0  0  0  0  0  0
    4.6400   -2.4770    1.1410 H   0  0  0  0  0  0  0  0  0  0  0  0
    5.4920   -0.6460    0.4040 C   0  0  0  0  0  0  0  0  0  0  0  0
    6.4950   -0.8840    0.7330 H   0  0  0  0  0  0  0  0  0  0  0  0
    5.2380    0.5530   -0.2590 C   0  0  0  0  0  0  0  0  0  0  0  0
    6.0450    1.2490   -0.4480 H   0  0  0  0  0  0  0  0  0  0  0  0
    3.9470    0.8550   -0.6850 C   0  0  0  0  0  0  0  0  0  0  0  0
    3.7560    1.7850   -1.2070 H   0  0  0  0  0  0  0  0  0  0  0  0
  2  3  1  0  0  0  0
  2  1  2  0  0  0  0
  3  4  1  0  0  0  0
  5  8  1  0  0  0  0
  5  6  1  0  0  0  0
  5  2  1  0  0  0  0
  7  5  1  0  0  0  0
  8 10  1  0  0  0  0
  9  8  1  0  0  0  0
 10 12  1  0  0  0  0
 10 11  2  0  0  0  0
 12 15  1  0  0  0  0
 12 13  1  0  0  0  0
 14 12  1  0  0  0  0
 15 16  1  0  0  0  0
 17 19  1  0  0  0  0
 17 15  1  0  0  0  0
 18 17  2  0  0  0  0
 19 23  1  1  0  0  0
 19 20  1  0  0  0  0
 20 21  1  0  0  0  0
 22 20  1  0  0  0  0
 24 27  1  0  0  0  0
 24 19  1  0  0  0  0
 25 24  1  0  0  0  0
 26 24  1  0  0  0  0
 27 28  1  0  0  0  0
 28 29  1  0  0  0  0
 28 30  2  0  0  0  0
 30 31  1  0  0  0  0
 32 30  1  0  0  0  0
 32 33  1  0  0  0  0
 34 32  2  0  0  0  0
 35 34  1  0  0  0  0
 36 27  2  0  0  0  0
 36 34  1  0  0  0  0
 37 36  1  0  0  0  0
M  END
$$$$
