./ArbAlign_Supporting-Information/Coordinates/FGG-Tripeptide/256_FGG366.xyz
 OpenBabel04142505293D

 37 37  0  0  1  0  0  0  0  0999 V2000
   -1.9020    1.5920    0.3730 O   0  0  0  0  0  0  0  0  0  0  0  0
   -3.0320    1.8520    0.0270 C   0  0  0  0  0  0  0  0  0  0  0  0
   -3.6120    3.0520    0.2250 O   0  0  0  0  0  0  0  0  0  0  0  0
   -2.9530    3.5980    0.6790 H   0  0  0  0  0  0  0  0  0  0  0  0
   -3.9760    0.9090   -0.6920 C   0  0  0  0  0  0  0  0  0  0  0  0
   -4.1890    1.3210   -1.6760 H   0  0  0  0  0  0  0  0  0  0  0  0
   -4.9080    0.8770   -0.1320 H   0  0  0  0  0  0  0  0  0  0  0  0
   -3.4290   -0.4120   -0.8060 N   0  0  0  0  0  0  0  0  0  0  0  0
   -2.6720   -0.5570   -1.4680 H   0  0  0  0  0  0  0  0  0  0  0  0
   -3.3450   -1.1570    0.3380 C   0  0  0  0  0  0  0  0  0  0  0  0
   -3.9880   -0.9140    1.3500 O   0  0  0  0  0  0  0  0  0  0  0  0
   -2.3060   -2.2650    0.2610 C   0  0  0  0  0  0  0  0  0  0  0  0
   -2.3410   -2.7770   -0.6990 H   0  0  0  0  0  0  0  0  0  0  0  0
   -2.4780   -2.9680    1.0690 H   0  0  0  0  0  0  0  0  0  0  0  0
   -0.9960   -1.6600    0.4120 N   0  0  0  0  0  0  0  0  0  0  0  0
   -0.6620   -1.3850    1.3280 H   0  0  0  0  0  0  0  0  0  0  0  0
   -0.4030   -1.0140   -0.6130 C   0  0  0  0  0  0  0  0  0  0  0  0
   -0.8050   -1.0580   -1.7790 O   0  0  0  0  0  0  0  0  0  0  0  0
    0.8520   -0.2500   -0.2320 C   0  0  1  0  0  0  0  0  0  0  0  0
    0.8000    0.1390    1.1730 N   0  0  0  0  0  0  0  0  0  0  0  0
    1.7100    0.4820    1.4600 H   0  0  0  0  0  0  0  0  0  0  0  0
    0.1400    0.9030    1.2810 H   0  0  0  0  0  0  0  0  0  0  0  0
    0.9040    0.5940   -0.9250 H   0  0  0  0  0  0  0  0  0  0  0  0
    2.0660   -1.1560   -0.4810 C   0  0  0  0  0  0  0  0  0  0  0  0
    1.9850   -2.0260    0.1720 H   0  0  0  0  0  0  0  0  0  0  0  0
    2.0220   -1.4990   -1.5160 H   0  0  0  0  0  0  0  0  0  0  0  0
    3.3510   -0.4260   -0.2200 C   0  0  0  0  0  0  0  0  0  0  0  0
    4.0340   -0.5800    0.9890 C   0  0  0  0  0  0  0  0  0  0  0  0
    3.6530   -1.2770    1.7260 H   0  0  0  0  0  0  0  0  0  0  0  0
    5.1970    0.1430    1.2500 C   0  0  0  0  0  0  0  0  0  0  0  0
    5.7160    0.0080    2.1900 H   0  0  0  0  0  0  0  0  0  0  0  0
    5.6930    1.0320    0.3000 C   0  0  0  0  0  0  0  0  0  0  0  0
    6.5970    1.5910    0.4980 H   0  0  0  0  0  0  0  0  0  0  0  0
    5.0210    1.1930   -0.9120 C   0  0  0  0  0  0  0  0  0  0  0  0
    5.4050    1.8760   -1.6570 H   0  0  0  0  0  0  0  0  0  0  0  0
    3.8590    0.4700   -1.1670 C   0  0  0  0  0  0  0  0  0  0  0  0
    3.3420    0.5930   -2.1110 H   0  0  0  0  0  0  0  0  0  0  0  0
  2  3  1  0  0  0  0
  2  1  2  0  0  0  0
  3  4  1  0  0  0  0
  5  7  1  0  0  0  0
  5  2  1  0  0  0  0
  6  5  1  0  0  0  0
  8  5  1  0  0  0  0
  8 10  1  0  0  0  0
  9  8  1  0  0  0  0
 10 11  2  0  0  0  0
 12 10  1  0  0  0  0
 12 15  1  0  0  0  0
 12 14  1  0  0  0  0
 13 12  1  0  0  0  0
 15 16  1  0  0  0  0
 17 19  1  0  0  0  0
 17 15  1  0  0  0  0
 18 17  2  0  0  0  0
 19 23  1  6  0  0  0
 19 20  1  0  0  0  0
 20 22  1  0  0  0  0
 20 21  1  0  0  0  0
 24 19  1  0  0  0  0
 24 27  1  0  0  0  0
 24 25  1  0  0  0  0
 26 24  1  0  0  0  0
 27 28  1  0  0  0  0
 28 30  2  0  0  0  0
 28 29  1  0  0  0  0
 30 31  1  0  0  0  0
 32 33  1  0  0  0  0
 32 30  1  0  0  0  0
 34 32  2  0  0  0  0
 35 34  1  0  0  0  0
 36 34  1  0  0  0  0
 36 27  2  0  0  0  0
 37 36  1  0  0  0  0
M  END
$$$$
