./ArbAlign_Supporting-Information/Coordinates/FGG-Tripeptide/257_FGG215.xyz
 OpenBabel04142505293D

 37 37  0  0  1  0  0  0  0  0999 V2000
    3.0450   -2.1400    0.3470 O   0  0  0  0  0  0  0  0  0  0  0  0
    2.9380   -0.9750    0.0400 C   0  0  0  0  0  0  0  0  0  0  0  0
    3.1070   -0.5460   -1.2120 O   0  0  0  0  0  0  0  0  0  0  0  0
    3.0570    0.4410   -1.2180 H   0  0  0  0  0  0  0  0  0  0  0  0
    2.6480    0.1130    1.0730 C   0  0  0  0  0  0  0  0  0  0  0  0
    3.5560    0.7100    1.1900 H   0  0  0  0  0  0  0  0  0  0  0  0
    2.4280   -0.3790    2.0150 H   0  0  0  0  0  0  0  0  0  0  0  0
    1.5420    0.9980    0.7470 N   0  0  0  0  0  0  0  0  0  0  0  0
    0.6990    0.9980    1.3130 H   0  0  0  0  0  0  0  0  0  0  0  0
    1.6530    1.9520   -0.1890 C   0  0  0  0  0  0  0  0  0  0  0  0
    2.6380    2.0610   -0.9320 O   0  0  0  0  0  0  0  0  0  0  0  0
    0.4770    2.9120   -0.2830 C   0  0  0  0  0  0  0  0  0  0  0  0
    0.6900    3.6040   -1.0910 H   0  0  0  0  0  0  0  0  0  0  0  0
    0.3910    3.4610    0.6560 H   0  0  0  0  0  0  0  0  0  0  0  0
   -0.7790    2.2440   -0.5450 N   0  0  0  0  0  0  0  0  0  0  0  0
   -1.2000    2.2350   -1.4640 H   0  0  0  0  0  0  0  0  0  0  0  0
   -1.5100    1.6830    0.4340 C   0  0  0  0  0  0  0  0  0  0  0  0
   -1.1320    1.6220    1.6090 O   0  0  0  0  0  0  0  0  0  0  0  0
   -2.8610    1.1370   -0.0170 C   0  0  1  0  0  0  0  0  0  0  0  0
   -2.9160    1.0830   -1.4770 N   0  0  0  0  0  0  0  0  0  0  0  0
   -3.8780    1.0610   -1.7890 H   0  0  0  0  0  0  0  0  0  0  0  0
   -2.4860    0.2190   -1.7940 H   0  0  0  0  0  0  0  0  0  0  0  0
   -3.5970    1.8750    0.3140 H   0  0  0  0  0  0  0  0  0  0  0  0
   -3.1570   -0.1940    0.7020 C   0  0  0  0  0  0  0  0  0  0  0  0
   -3.1570   -0.0100    1.7760 H   0  0  0  0  0  0  0  0  0  0  0  0
   -4.1590   -0.5130    0.4110 H   0  0  0  0  0  0  0  0  0  0  0  0
   -2.1460   -1.2480    0.3570 C   0  0  0  0  0  0  0  0  0  0  0  0
   -2.2600   -2.0080   -0.8140 C   0  0  0  0  0  0  0  0  0  0  0  0
   -3.1460   -1.9080   -1.4310 H   0  0  0  0  0  0  0  0  0  0  0  0
   -1.2650   -2.9150   -1.1790 C   0  0  0  0  0  0  0  0  0  0  0  0
   -1.3680   -3.4870   -2.0910 H   0  0  0  0  0  0  0  0  0  0  0  0
   -0.1470   -3.0880   -0.3670 C   0  0  0  0  0  0  0  0  0  0  0  0
    0.6390   -3.7740   -0.6500 H   0  0  0  0  0  0  0  0  0  0  0  0
   -0.0460   -2.3740    0.8260 C   0  0  0  0  0  0  0  0  0  0  0  0
    0.8100   -2.5320    1.4660 H   0  0  0  0  0  0  0  0  0  0  0  0
   -1.0320   -1.4590    1.1800 C   0  0  0  0  0  0  0  0  0  0  0  0
   -0.9550   -0.9010    2.1040 H   0  0  0  0  0  0  0  0  0  0  0  0
  2  1  2  0  0  0  0
  2  5  1  0  0  0  0
  3  2  1  0  0  0  0
  4  3  1  0  0  0  0
  5  6  1  0  0  0  0
  5  7  1  0  0  0  0
  8  5  1  0  0  0  0
  8  9  1  0  0  0  0
 10  8  1  0  0  0  0
 11 10  2  0  0  0  0
 12 10  1  0  0  0  0
 12 14  1  0  0  0  0
 13 12  1  0  0  0  0
 15 12  1  0  0  0  0
 15 17  1  0  0  0  0
 16 15  1  0  0  0  0
 17 18  2  0  0  0  0
 19 23  1  1  0  0  0
 19 17  1  0  0  0  0
 19 24  1  0  0  0  0
 20 19  1  0  0  0  0
 21 20  1  0  0  0  0
 22 20  1  0  0  0  0
 24 25  1  0  0  0  0
 26 24  1  0  0  0  0
 27 24  1  0  0  0  0
 27 36  1  0  0  0  0
 28 27  2  0  0  0  0
 29 28  1  0  0  0  0
 30 28  1  0  0  0  0
 30 32  2  0  0  0  0
 31 30  1  0  0  0  0
 32 34  1  0  0  0  0
 33 32  1  0  0  0  0
 34 36  2  0  0  0  0
 34 35  1  0  0  0  0
 36 37  1  0  0  0  0
M  END
$$$$
