./ArbAlign_Supporting-Information/Coordinates/FGG-Tripeptide/258_FGG224.xyz
 OpenBabel04142505293D

 37 37  0  0  1  0  0  0  0  0999 V2000
    3.2650   -1.2190    1.5760 O   0  0  0  0  0  0  0  0  0  0  0  0
    3.1190   -0.4480    0.6550 C   0  0  0  0  0  0  0  0  0  0  0  0
    3.1920   -0.8390   -0.6200 O   0  0  0  0  0  0  0  0  0  0  0  0
    2.9630   -0.0710   -1.2000 H   0  0  0  0  0  0  0  0  0  0  0  0
    2.8500    1.0380    0.8630 C   0  0  0  0  0  0  0  0  0  0  0  0
    3.6380    1.6110    0.3700 H   0  0  0  0  0  0  0  0  0  0  0  0
    2.8750    1.2330    1.9290 H   0  0  0  0  0  0  0  0  0  0  0  0
    1.5610    1.4660    0.3490 N   0  0  0  0  0  0  0  0  0  0  0  0
    0.8130    1.7560    0.9790 H   0  0  0  0  0  0  0  0  0  0  0  0
    1.3350    1.6000   -0.9640 C   0  0  0  0  0  0  0  0  0  0  0  0
    2.1550    1.2780   -1.8360 O   0  0  0  0  0  0  0  0  0  0  0  0
    0.0020    2.2380   -1.3320 C   0  0  0  0  0  0  0  0  0  0  0  0
   -0.0440    2.2730   -2.4150 H   0  0  0  0  0  0  0  0  0  0  0  0
   -0.0080    3.2560   -0.9390 H   0  0  0  0  0  0  0  0  0  0  0  0
   -1.1670    1.5420   -0.8370 N   0  0  0  0  0  0  0  0  0  0  0  0
   -1.7550    0.9990   -1.4550 H   0  0  0  0  0  0  0  0  0  0  0  0
   -1.5810    1.6220    0.4390 C   0  0  0  0  0  0  0  0  0  0  0  0
   -0.9380    2.1820    1.3350 O   0  0  0  0  0  0  0  0  0  0  0  0
   -2.9100    0.9480    0.7300 C   0  0  1  0  0  0  0  0  0  0  0  0
   -3.6840    0.7890   -0.4990 N   0  0  0  0  0  0  0  0  0  0  0  0
   -4.0680    1.6840   -0.7830 H   0  0  0  0  0  0  0  0  0  0  0  0
   -4.4770    0.1820   -0.3250 H   0  0  0  0  0  0  0  0  0  0  0  0
   -3.3950    1.5790    1.4800 H   0  0  0  0  0  0  0  0  0  0  0  0
   -2.6430   -0.4210    1.3810 C   0  0  0  0  0  0  0  0  0  0  0  0
   -2.1820   -0.2360    2.3520 H   0  0  0  0  0  0  0  0  0  0  0  0
   -3.6120   -0.8920    1.5670 H   0  0  0  0  0  0  0  0  0  0  0  0
   -1.7630   -1.3270    0.5680 C   0  0  0  0  0  0  0  0  0  0  0  0
   -0.4200   -1.5040    0.9210 C   0  0  0  0  0  0  0  0  0  0  0  0
   -0.0300   -1.0070    1.8010 H   0  0  0  0  0  0  0  0  0  0  0  0
    0.4160   -2.3310    0.1720 C   0  0  0  0  0  0  0  0  0  0  0  0
    1.4430   -2.4730    0.4740 H   0  0  0  0  0  0  0  0  0  0  0  0
   -0.0810   -2.9790   -0.9570 C   0  0  0  0  0  0  0  0  0  0  0  0
    0.5680   -3.6160   -1.5420 H   0  0  0  0  0  0  0  0  0  0  0  0
   -1.4170   -2.8160   -1.3180 C   0  0  0  0  0  0  0  0  0  0  0  0
   -1.8130   -3.3300   -2.1840 H   0  0  0  0  0  0  0  0  0  0  0  0
   -2.2520   -2.0020   -0.5560 C   0  0  0  0  0  0  0  0  0  0  0  0
   -3.2920   -1.8970   -0.8350 H   0  0  0  0  0  0  0  0  0  0  0  0
  2  5  1  0  0  0  0
  2  1  2  0  0  0  0
  3  2  1  0  0  0  0
  4  3  1  0  0  0  0
  5  7  1  0  0  0  0
  6  5  1  0  0  0  0
  8  5  1  0  0  0  0
  8  9  1  0  0  0  0
 10  8  1  0  0  0  0
 11 10  2  0  0  0  0
 12 10  1  0  0  0  0
 12 14  1  0  0  0  0
 12 15  1  0  0  0  0
 13 12  1  0  0  0  0
 15 17  1  0  0  0  0
 16 15  1  0  0  0  0
 17 19  1  0  0  0  0
 17 18  2  0  0  0  0
 19 24  1  0  0  0  0
 19 23  1  1  0  0  0
 20 22  1  0  0  0  0
 20 19  1  0  0  0  0
 21 20  1  0  0  0  0
 24 26  1  0  0  0  0
 24 25  1  0  0  0  0
 27 28  1  0  0  0  0
 27 24  1  0  0  0  0
 28 29  1  0  0  0  0
 30 31  1  0  0  0  0
 30 28  2  0  0  0  0
 32 30  1  0  0  0  0
 33 32  1  0  0  0  0
 34 32  2  0  0  0  0
 34 36  1  0  0  0  0
 35 34  1  0  0  0  0
 36 27  2  0  0  0  0
 37 36  1  0  0  0  0
M  END
$$$$
