./ArbAlign_Supporting-Information/Coordinates/FGG-Tripeptide/260_FGG412.xyz
 OpenBabel04142505293D

 37 37  0  0  1  0  0  0  0  0999 V2000
    3.4370    0.2250    0.5230 O   0  0  0  0  0  0  0  0  0  0  0  0
    2.3860   -0.3360    0.3240 C   0  0  0  0  0  0  0  0  0  0  0  0
    1.2760   -0.1230    1.0620 O   0  0  0  0  0  0  0  0  0  0  0  0
    1.5260    0.5820    1.6820 H   0  0  0  0  0  0  0  0  0  0  0  0
    2.1850   -1.3460   -0.7900 C   0  0  0  0  0  0  0  0  0  0  0  0
    2.8860   -2.1570   -0.5990 H   0  0  0  0  0  0  0  0  0  0  0  0
    2.4820   -0.8600   -1.7170 H   0  0  0  0  0  0  0  0  0  0  0  0
    0.8600   -1.8810   -0.9140 N   0  0  0  0  0  0  0  0  0  0  0  0
    0.1460   -1.3580   -1.4080 H   0  0  0  0  0  0  0  0  0  0  0  0
    0.4340   -2.8110   -0.0140 C   0  0  0  0  0  0  0  0  0  0  0  0
    1.1780   -3.3940    0.7610 O   0  0  0  0  0  0  0  0  0  0  0  0
   -1.0730   -3.0260   -0.0340 C   0  0  0  0  0  0  0  0  0  0  0  0
   -1.3040   -3.8630    0.6160 H   0  0  0  0  0  0  0  0  0  0  0  0
   -1.4160   -3.2360   -1.0470 H   0  0  0  0  0  0  0  0  0  0  0  0
   -1.7610   -1.8420    0.4380 N   0  0  0  0  0  0  0  0  0  0  0  0
   -1.8900   -1.6680    1.4260 H   0  0  0  0  0  0  0  0  0  0  0  0
   -2.0300   -0.8040   -0.3730 C   0  0  0  0  0  0  0  0  0  0  0  0
   -1.7850   -0.8020   -1.5830 O   0  0  0  0  0  0  0  0  0  0  0  0
   -2.7150    0.3730    0.3200 C   0  0  1  0  0  0  0  0  0  0  0  0
   -2.3940    0.3570    1.7450 N   0  0  0  0  0  0  0  0  0  0  0  0
   -1.4620    0.7360    1.8790 H   0  0  0  0  0  0  0  0  0  0  0  0
   -3.0310    0.9570    2.2540 H   0  0  0  0  0  0  0  0  0  0  0  0
   -3.7880    0.1780    0.2300 H   0  0  0  0  0  0  0  0  0  0  0  0
   -2.4190    1.6860   -0.4230 C   0  0  0  0  0  0  0  0  0  0  0  0
   -2.7110    1.5580   -1.4650 H   0  0  0  0  0  0  0  0  0  0  0  0
   -3.0550    2.4610    0.0110 H   0  0  0  0  0  0  0  0  0  0  0  0
   -0.9810    2.1120   -0.3420 C   0  0  0  0  0  0  0  0  0  0  0  0
   -0.5110    2.8360    0.7610 C   0  0  0  0  0  0  0  0  0  0  0  0
   -1.2040    3.1290    1.5400 H   0  0  0  0  0  0  0  0  0  0  0  0
    0.8270    3.2260    0.8480 C   0  0  0  0  0  0  0  0  0  0  0  0
    1.1670    3.7950    1.7040 H   0  0  0  0  0  0  0  0  0  0  0  0
    1.7150    2.9060   -0.1760 C   0  0  0  0  0  0  0  0  0  0  0  0
    2.7520    3.2020   -0.1120 H   0  0  0  0  0  0  0  0  0  0  0  0
    1.2540    2.2020   -1.2880 C   0  0  0  0  0  0  0  0  0  0  0  0
    1.9340    1.9690   -2.0970 H   0  0  0  0  0  0  0  0  0  0  0  0
   -0.0780    1.8010   -1.3660 C   0  0  0  0  0  0  0  0  0  0  0  0
   -0.4360    1.2550   -2.2280 H   0  0  0  0  0  0  0  0  0  0  0  0
  2  1  2  0  0  0  0
  2  3  1  0  0  0  0
  3  4  1  0  0  0  0
  5  6  1  0  0  0  0
  5  2  1  0  0  0  0
  7  5  1  0  0  0  0
  8  5  1  0  0  0  0
  8 10  1  0  0  0  0
  9  8  1  0  0  0  0
 10 11  2  0  0  0  0
 12 10  1  0  0  0  0
 12 15  1  0  0  0  0
 12 13  1  0  0  0  0
 14 12  1  0  0  0  0
 15 16  1  0  0  0  0
 17 19  1  0  0  0  0
 17 15  1  0  0  0  0
 18 17  2  0  0  0  0
 19 23  1  6  0  0  0
 19 20  1  0  0  0  0
 20 21  1  0  0  0  0
 20 22  1  0  0  0  0
 24 27  1  0  0  0  0
 24 26  1  0  0  0  0
 24 19  1  0  0  0  0
 25 24  1  0  0  0  0
 27 28  1  0  0  0  0
 28 30  2  0  0  0  0
 28 29  1  0  0  0  0
 30 31  1  0  0  0  0
 32 33  1  0  0  0  0
 32 30  1  0  0  0  0
 34 32  2  0  0  0  0
 35 34  1  0  0  0  0
 36 34  1  0  0  0  0
 36 27  2  0  0  0  0
 37 36  1  0  0  0  0
M  END
$$$$
