./ArbAlign_Supporting-Information/Coordinates/FGG-Tripeptide/261_FGG444.xyz
 OpenBabel04142505293D

 37 37  0  0  1  0  0  0  0  0999 V2000
    2.2610   -2.6120    1.1270 O   0  0  0  0  0  0  0  0  0  0  0  0
    2.5710   -1.6830    0.4170 C   0  0  0  0  0  0  0  0  0  0  0  0
    2.4970   -1.7500   -0.9160 O   0  0  0  0  0  0  0  0  0  0  0  0
    2.7760   -0.8810   -1.2950 H   0  0  0  0  0  0  0  0  0  0  0  0
    3.0720   -0.3540    0.9710 C   0  0  0  0  0  0  0  0  0  0  0  0
    4.0830   -0.1760    0.5990 H   0  0  0  0  0  0  0  0  0  0  0  0
    3.0940   -0.4300    2.0530 H   0  0  0  0  0  0  0  0  0  0  0  0
    2.2330    0.7710    0.6010 N   0  0  0  0  0  0  0  0  0  0  0  0
    1.5620    1.1710    1.2560 H   0  0  0  0  0  0  0  0  0  0  0  0
    2.2470    1.2830   -0.6390 C   0  0  0  0  0  0  0  0  0  0  0  0
    2.9170    0.8070   -1.5650 O   0  0  0  0  0  0  0  0  0  0  0  0
    1.3710    2.5120   -0.8300 C   0  0  0  0  0  0  0  0  0  0  0  0
    1.5730    2.9020   -1.8220 H   0  0  0  0  0  0  0  0  0  0  0  0
    1.6300    3.2610   -0.0800 H   0  0  0  0  0  0  0  0  0  0  0  0
   -0.0420    2.2090   -0.7250 N   0  0  0  0  0  0  0  0  0  0  0  0
   -0.6630    2.2600   -1.5210 H   0  0  0  0  0  0  0  0  0  0  0  0
   -0.6550    2.0510    0.4590 C   0  0  0  0  0  0  0  0  0  0  0  0
   -0.0590    2.0250    1.5420 O   0  0  0  0  0  0  0  0  0  0  0  0
   -2.1750    1.9350    0.3840 C   0  0  1  0  0  0  0  0  0  0  0  0
   -2.6280    1.9190   -1.0060 N   0  0  0  0  0  0  0  0  0  0  0  0
   -3.5330    2.3620   -1.0870 H   0  0  0  0  0  0  0  0  0  0  0  0
   -2.7440    0.9560   -1.3110 H   0  0  0  0  0  0  0  0  0  0  0  0
   -2.5400    2.8510    0.8530 H   0  0  0  0  0  0  0  0  0  0  0  0
   -2.6490    0.7390    1.2330 C   0  0  0  0  0  0  0  0  0  0  0  0
   -2.1530    0.7960    2.2010 H   0  0  0  0  0  0  0  0  0  0  0  0
   -3.7240    0.8420    1.3930 H   0  0  0  0  0  0  0  0  0  0  0  0
   -2.3620   -0.5680    0.5510 C   0  0  0  0  0  0  0  0  0  0  0  0
   -3.3380   -1.1690   -0.2530 C   0  0  0  0  0  0  0  0  0  0  0  0
   -4.3220   -0.7200   -0.3150 H   0  0  0  0  0  0  0  0  0  0  0  0
   -3.0690   -2.3480   -0.9460 C   0  0  0  0  0  0  0  0  0  0  0  0
   -3.8380   -2.8010   -1.5570 H   0  0  0  0  0  0  0  0  0  0  0  0
   -1.8150   -2.9430   -0.8410 C   0  0  0  0  0  0  0  0  0  0  0  0
   -1.6030   -3.8610   -1.3720 H   0  0  0  0  0  0  0  0  0  0  0  0
   -0.8350   -2.3640   -0.0350 C   0  0  0  0  0  0  0  0  0  0  0  0
    0.1330   -2.8340    0.0700 H   0  0  0  0  0  0  0  0  0  0  0  0
   -1.1080   -1.1820    0.6500 C   0  0  0  0  0  0  0  0  0  0  0  0
   -0.3500   -0.7450    1.2890 H   0  0  0  0  0  0  0  0  0  0  0  0
  2  5  1  0  0  0  0
  2  1  2  0  0  0  0
  3  2  1  0  0  0  0
  4  3  1  0  0  0  0
  5  7  1  0  0  0  0
  6  5  1  0  0  0  0
  8  5  1  0  0  0  0
  8  9  1  0  0  0  0
 10  8  1  0  0  0  0
 11 10  2  0  0  0  0
 12 15  1  0  0  0  0
 12 10  1  0  0  0  0
 12 14  1  0  0  0  0
 13 12  1  0  0  0  0
 15 17  1  0  0  0  0
 16 15  1  0  0  0  0
 17 18  2  0  0  0  0
 19 17  1  0  0  0  0
 19 23  1  1  0  0  0
 19 24  1  0  0  0  0
 20 19  1  0  0  0  0
 21 20  1  0  0  0  0
 22 20  1  0  0  0  0
 24 26  1  0  0  0  0
 24 25  1  0  0  0  0
 27 36  1  0  0  0  0
 27 24  1  0  0  0  0
 28 27  2  0  0  0  0
 29 28  1  0  0  0  0
 30 32  2  0  0  0  0
 30 28  1  0  0  0  0
 31 30  1  0  0  0  0
 32 34  1  0  0  0  0
 33 32  1  0  0  0  0
 34 35  1  0  0  0  0
 34 36  2  0  0  0  0
 36 37  1  0  0  0  0
M  END
$$$$
