./ArbAlign_Supporting-Information/Coordinates/FGG-Tripeptide/262_FGG470.xyz
 OpenBabel04142505293D

 37 37  0  0  1  0  0  0  0  0999 V2000
   -2.4470    0.8830    1.7750 O   0  0  0  0  0  0  0  0  0  0  0  0
   -2.9380    0.9930    0.6760 C   0  0  0  0  0  0  0  0  0  0  0  0
   -3.7620    2.0040    0.3280 O   0  0  0  0  0  0  0  0  0  0  0  0
   -3.8560    2.5520    1.1220 H   0  0  0  0  0  0  0  0  0  0  0  0
   -2.7170    0.0610   -0.4800 C   0  0  0  0  0  0  0  0  0  0  0  0
   -2.3030    0.6350   -1.3140 H   0  0  0  0  0  0  0  0  0  0  0  0
   -3.6810   -0.3190   -0.8200 H   0  0  0  0  0  0  0  0  0  0  0  0
   -1.8470   -1.0080   -0.0820 N   0  0  0  0  0  0  0  0  0  0  0  0
   -1.3620   -0.9630    0.8080 H   0  0  0  0  0  0  0  0  0  0  0  0
   -1.5360   -1.9790   -0.9710 C   0  0  0  0  0  0  0  0  0  0  0  0
   -2.0230   -2.0450   -2.0950 O   0  0  0  0  0  0  0  0  0  0  0  0
   -0.5120   -2.9830   -0.4590 C   0  0  0  0  0  0  0  0  0  0  0  0
   -0.4620   -3.7960   -1.1760 H   0  0  0  0  0  0  0  0  0  0  0  0
   -0.8190   -3.3650    0.5150 H   0  0  0  0  0  0  0  0  0  0  0  0
    0.8010   -2.3870   -0.3220 N   0  0  0  0  0  0  0  0  0  0  0  0
    1.5180   -2.4950   -1.0250 H   0  0  0  0  0  0  0  0  0  0  0  0
    1.1520   -1.6890    0.7710 C   0  0  0  0  0  0  0  0  0  0  0  0
    0.3900   -1.4720    1.7170 O   0  0  0  0  0  0  0  0  0  0  0  0
    2.5980   -1.1950    0.7750 C   0  0  1  0  0  0  0  0  0  0  0  0
    3.2020   -1.3590   -0.5460 N   0  0  0  0  0  0  0  0  0  0  0  0
    2.9850   -0.5480   -1.1170 H   0  0  0  0  0  0  0  0  0  0  0  0
    4.2090   -1.3980   -0.4670 H   0  0  0  0  0  0  0  0  0  0  0  0
    3.1240   -1.8590    1.4650 H   0  0  0  0  0  0  0  0  0  0  0  0
    2.6560    0.2330    1.3500 C   0  0  0  0  0  0  0  0  0  0  0  0
    2.1640    0.2260    2.3220 H   0  0  0  0  0  0  0  0  0  0  0  0
    3.7060    0.4960    1.4980 H   0  0  0  0  0  0  0  0  0  0  0  0
    2.0020    1.2310    0.4390 C   0  0  0  0  0  0  0  0  0  0  0  0
    0.6410    1.5340    0.5650 C   0  0  0  0  0  0  0  0  0  0  0  0
    0.0680    1.0820    1.3640 H   0  0  0  0  0  0  0  0  0  0  0  0
    0.0330    2.4300   -0.3110 C   0  0  0  0  0  0  0  0  0  0  0  0
   -1.0130    2.6810   -0.1890 H   0  0  0  0  0  0  0  0  0  0  0  0
    0.7670    3.0260   -1.3370 C   0  0  0  0  0  0  0  0  0  0  0  0
    0.2900    3.7200   -2.0150 H   0  0  0  0  0  0  0  0  0  0  0  0
    2.1230    2.7390   -1.4670 C   0  0  0  0  0  0  0  0  0  0  0  0
    2.7070    3.2110   -2.2460 H   0  0  0  0  0  0  0  0  0  0  0  0
    2.7340    1.8530   -0.5800 C   0  0  0  0  0  0  0  0  0  0  0  0
    3.7980    1.6610   -0.6630 H   0  0  0  0  0  0  0  0  0  0  0  0
  2  1  2  0  0  0  0
  3  2  1  0  0  0  0
  3  4  1  0  0  0  0
  5  8  1  0  0  0  0
  5  2  1  0  0  0  0
  6  5  1  0  0  0  0
  7  5  1  0  0  0  0
  8  9  1  0  0  0  0
 10 12  1  0  0  0  0
 10  8  1  0  0  0  0
 11 10  2  0  0  0  0
 12 15  1  0  0  0  0
 12 14  1  0  0  0  0
 13 12  1  0  0  0  0
 15 17  1  0  0  0  0
 16 15  1  0  0  0  0
 17 19  1  0  0  0  0
 17 18  2  0  0  0  0
 19 24  1  0  0  0  0
 19 23  1  1  0  0  0
 20 22  1  0  0  0  0
 20 19  1  0  0  0  0
 21 20  1  0  0  0  0
 24 26  1  0  0  0  0
 24 25  1  0  0  0  0
 27 28  1  0  0  0  0
 27 24  1  0  0  0  0
 28 29  1  0  0  0  0
 30 31  1  0  0  0  0
 30 28  2  0  0  0  0
 32 30  1  0  0  0  0
 33 32  1  0  0  0  0
 34 32  2  0  0  0  0
 34 36  1  0  0  0  0
 35 34  1  0  0  0  0
 36 27  2  0  0  0  0
 37 36  1  0  0  0  0
M  END
$$$$
