120
215d_DNA_manual.pdb
O          9.18200       20.45000       23.11000
C          9.78900       21.34500       24.05900
C         11.24900       20.98500       24.21800
O         11.36700       19.75300       24.93400
C         12.08400       20.84100       22.95100
O         13.10200       21.83400       22.97200
C         12.68000       19.42700       23.00900
C         12.48100       18.99400       24.42500
N         12.07800       17.59600       24.54700
C         13.08200       16.65700       24.71700
O         14.23800       17.02800       24.75900
N         12.71100       15.36000       24.79100
C         11.43200       14.96100       24.78600
N         11.18400       13.66400       24.90800
C         10.39100       15.90300       24.64800
C         10.77600       17.20200       24.56300
P         13.73800       22.87200       21.92700
O         14.66000       23.60300       22.85000
O         12.62700       23.44500       21.18500
O         14.52500       21.87900       20.89300
C         15.79000       21.35300       21.33900
C         16.39500       20.67500       20.14600
O         15.77900       19.40100       19.95000
C         16.21800       21.38100       18.81500
O         17.28900       20.96200       18.00300
C         14.87400       20.82400       18.32700
C         15.18300       19.35100       18.67200
N         14.00500       18.49300       18.56500
C         12.70600       18.81900       18.48100
N         11.89000       17.78400       18.33200
C         12.76200       16.70200       18.30600
C         12.51700       15.30400       18.16800
O         11.39500       14.77800       18.07200
N         13.63900       14.54200       18.17800
C         14.86000       15.05900       18.34300
N         15.88000       14.20200       18.33200
N         15.17200       16.35900       18.43300
C         14.05000       17.11800       18.40600
P         18.34100       21.68200       17.07000
O         18.94900       22.82900       17.72200
O         17.33400       21.86800       15.91900
O         19.34200       20.54900       16.58700
C         20.26500       19.78900       17.40900
C         20.09900       18.39500       16.83100
O         18.74600       18.06000       16.89500
C         20.40000       18.26500       15.33100
O         21.72400       18.21500       15.02800
C         19.69700       16.89600       15.01800
C         18.65100       16.84200       16.06800
N         17.25300       16.79400       15.58500
C         16.75800       15.50600       15.45300
O         17.50600       14.54200       15.59100
N         15.44200       15.36600       15.12400
C         14.62900       16.45700       14.97000
O         13.45100       16.17300       14.74700
C         15.13800       17.76200       15.14500
C         14.24400       18.97100       14.95400
C         16.45100       17.90200       15.46300
P         22.62100       17.96400       13.71900
O         23.97700       17.91100       14.40300
O         22.30900       19.07500       12.88100
O         22.08700       16.57500       13.19900
C         22.76800       15.48100       13.80900
C         22.30900       14.24700       13.04500
O         20.91700       14.19000       13.08800
C         22.73100       14.30800       11.57600
O         23.17800       13.05700       11.15200
C         21.45100       14.84000       10.90800
C         20.40800       14.11700       11.73000
N         19.12600       14.81200       11.71400
C         18.90400       16.17600       11.81500
N         17.66100       16.50500       11.80400
C         16.99400       15.29800       11.77200
C         15.61600       14.97500       11.74600
N         14.64300       15.85200       11.74100
N         15.37100       13.65300       11.68200
C         16.34500       12.71400       11.66100
N         17.65200       12.93300       11.64500
C         17.89100       14.25500       11.70400
P         23.86700       12.74200        9.69400
O         24.83200       11.74100        9.95400
O         24.18800       14.13700        9.26900
O         22.55700       12.27000        8.91400
C         22.04500       10.89700        9.04100
C         20.81600       10.93400        8.16600
O         19.94100       11.94100        8.72300
C         20.99000       11.34700        6.70300
O         20.28400       10.47000        5.83800
C         20.38300       12.76200        6.65500
C         19.22100       12.51100        7.63600
N         18.51800       13.74300        7.94900
C         17.14000       13.63400        8.11300
O         16.63100       12.51700        8.04400
N         16.43700       14.73900        8.37300
C         17.03400       15.97000        8.43200
N         16.31100       17.06700        8.60700
C         18.43100       16.09100        8.22500
C         19.12000       14.95500        8.02300
P         21.12000        9.47700        4.86800
O         21.78300        8.49600        5.73800
O         21.87000       10.47800        4.08300
O         19.88800        8.96500        3.87600
C         18.92000        8.14400        4.55500
C         17.96200        7.63200        3.50000
O         17.11200        8.69500        3.08600
C         18.59700        7.06400        2.24800
O         17.90200        5.85200        1.85600
C         18.52100        8.19200        1.25700
C         17.30100        8.96200        1.64900
N         17.41300       10.41400        1.56400
C         18.50400       11.20100        1.59100
N         18.25100       12.50000        1.61200
C         16.83400       12.53700        1.56400
C         15.95600       13.63100        1.51700
O         16.30000       14.79500        1.50600
N         14.60700       13.30500        1.50600
C         14.21000       12.00500        1.50100
N         12.90200       11.79200        1.45300
N         15.00300       10.93900        1.51100
C         16.31900       11.28000        1.54800
