120
../Data/extra_bio_ligands/extra_bio_ligands_reference/215d_DNA_manual-noHydrogens.xyz
O 9.182 20.45 23.11
C 9.789 21.345 24.059
C 11.249 20.985 24.218
O 11.367 19.753 24.934
C 12.084 20.841 22.951
O 13.102 21.834 22.972
C 12.68 19.427 23.009
C 12.481 18.994 24.425
N 12.078 17.596 24.547
C 13.082 16.657 24.717
O 14.238 17.028 24.759
N 12.711 15.36 24.791
C 11.432 14.961 24.786
N 11.184 13.664 24.908
C 10.391 15.903 24.648
C 10.776 17.202 24.563
P 13.738 22.872 21.927
O 14.66 23.603 22.85
O 12.627 23.445 21.185
O 14.525 21.879 20.893
C 15.79 21.353 21.339
C 16.395 20.675 20.146
O 15.779 19.401 19.95
C 16.218 21.381 18.815
O 17.289 20.962 18.003
C 14.874 20.824 18.327
C 15.183 19.351 18.672
N 14.005 18.493 18.565
C 12.706 18.819 18.481
N 11.89 17.784 18.332
C 12.762 16.702 18.306
C 12.517 15.304 18.168
O 11.395 14.778 18.072
N 13.639 14.542 18.178
C 14.86 15.059 18.343
N 15.88 14.202 18.332
N 15.172 16.359 18.433
C 14.05 17.118 18.406
P 18.341 21.682 17.07
O 18.949 22.829 17.722
O 17.334 21.868 15.919
O 19.342 20.549 16.587
C 20.265 19.789 17.409
C 20.099 18.395 16.831
O 18.746 18.06 16.895
C 20.4 18.265 15.331
O 21.724 18.215 15.028
C 19.697 16.896 15.018
C 18.651 16.842 16.068
N 17.253 16.794 15.585
C 16.758 15.506 15.453
O 17.506 14.542 15.591
N 15.442 15.366 15.124
C 14.629 16.457 14.97
O 13.451 16.173 14.747
C 15.138 17.762 15.145
C 14.244 18.971 14.954
C 16.451 17.902 15.463
P 22.621 17.964 13.719
O 23.977 17.911 14.403
O 22.309 19.075 12.881
O 22.087 16.575 13.199
C 22.768 15.481 13.809
C 22.309 14.247 13.045
O 20.917 14.19 13.088
C 22.731 14.308 11.576
O 23.178 13.057 11.152
C 21.451 14.84 10.908
C 20.408 14.117 11.73
N 19.126 14.812 11.714
C 18.904 16.176 11.815
N 17.661 16.505 11.804
C 16.994 15.298 11.772
C 15.616 14.975 11.746
N 14.643 15.852 11.741
N 15.371 13.653 11.682
C 16.345 12.714 11.661
N 17.652 12.933 11.645
C 17.891 14.255 11.704
P 23.867 12.742 9.694
O 24.832 11.741 9.954
O 24.188 14.137 9.269
O 22.557 12.27 8.914
C 22.045 10.897 9.041
C 20.816 10.934 8.166
O 19.941 11.941 8.723
C 20.99 11.347 6.703
O 20.284 10.47 5.838
C 20.383 12.762 6.655
C 19.221 12.511 7.636
N 18.518 13.743 7.949
C 17.14 13.634 8.113
O 16.631 12.517 8.044
N 16.437 14.739 8.373
C 17.034 15.97 8.432
N 16.311 17.067 8.607
C 18.431 16.091 8.225
C 19.12 14.955 8.023
P 21.12 9.477 4.868
O 21.783 8.496 5.738
O 21.87 10.478 4.083
O 19.888 8.965 3.876
C 18.92 8.144 4.555
C 17.962 7.632 3.5
O 17.112 8.695 3.086
C 18.597 7.064 2.248
O 17.902 5.852 1.856
C 18.521 8.192 1.257
C 17.301 8.962 1.649
N 17.413 10.414 1.564
C 18.504 11.201 1.591
N 18.251 12.5 1.612
C 16.834 12.537 1.564
C 15.956 13.631 1.517
O 16.3 14.795 1.506
N 14.607 13.305 1.506
C 14.21 12.005 1.501
N 12.902 11.792 1.453
N 15.003 10.939 1.511
C 16.319 11.28 1.548
