37
../Data/extra_bio_ligands/extra_bio_ligands_reference/4csv_imatinib-noHydrogens.xyz
C -21.683 2.567 7.269
C -21.067 3.497 6.454
C -21.833 4.438 5.751
C -23.22 4.419 5.931
N -23.797 3.486 6.732
C -23.061 2.583 7.402
C -21.193 5.482 4.881
C -19.821 5.628 4.715
C -19.33 6.653 3.906
N -20.138 7.528 3.302
C -21.447 7.382 3.484
N -21.951 6.381 4.244
N -22.428 8.101 2.954
C -22.17 9.127 2.106
C -21.68 10.41 2.673
C -21.22 11.405 1.824
C -21.167 11.179 0.458
C -21.582 9.957 -0.108
C -22.066 8.93 0.726
N -21.453 9.867 -1.462
C -21.732 8.822 -2.275
C -21.752 9.024 -3.765
C -21.244 10.16 -4.361
C -21.311 10.307 -5.739
C -21.872 9.316 -6.539
C -22.395 8.173 -5.942
C -22.343 8.045 -4.557
C -21.945 9.502 -8.032
N -20.771 9.144 -8.87
C -20.85 9.852 -10.183
C -19.542 10.375 -10.806
N -18.274 9.84 -10.227
C -17.231 9.551 -11.242
C -18.437 8.765 -9.23
C -19.453 9.236 -8.213
O -22.022 7.703 -1.904
C -21.756 10.643 4.162
