31
../Data/extra_bio_ligands/extra_bio_ligands_reference/6ln3_ATP-noHydrogens.xyz
P 74.125 51.517 25.471
O 73.752 50.098 25.813
O 73.001 52.428 24.867
O 75.503 51.752 24.972
P 75.163 51.982 28.225
O 74.546 51.065 29.168
O 76.564 51.751 27.65
O 74.154 52.194 27.024
P 76.182 54.643 29.045
O 77.423 54.153 29.708
O 76.371 55.268 27.701
O 75.102 53.438 28.986
O 75.438 55.638 30.087
C 74.17 56.285 29.788
C 74.141 57.623 30.495
O 74.109 57.368 31.908
C 75.377 58.504 30.251
O 75.099 59.887 30.086
C 76.205 58.218 31.495
O 77.066 59.285 31.792
C 75.148 58.057 32.551
N 75.514 57.259 33.742
C 76.083 56.021 33.733
N 76.191 55.498 34.933
C 75.614 56.438 35.778
C 75.432 56.48 37.183
N 75.737 55.489 38.027
N 74.783 57.57 37.672
C 74.446 58.556 36.83
N 74.598 58.638 35.511
C 75.195 57.527 35.041
