12
../Data/extra_bio_ligands/extra_bio_ligands_reference/8w4x_BGC-noHydrogens.xyz
C 10.962 -3.002 -11.789
C 10.656 -4.185 -10.896
C 9.985 -5.291 -11.639
C 10.729 -5.683 -12.836
C 10.028 -6.692 -13.704
C 11.768 -3.442 -13.018
O 11.977 -2.492 -13.92
O 11.761 -2.073 -11.08
O 9.821 -3.737 -9.803
O 9.975 -6.444 -10.75
O 10.982 -4.529 -13.689
O 8.88 -6.1 -14.345
