45
8w4x_BGCGLC_conf24.pdb
C         -2.56000        0.50500        3.58600
C         -1.77100        1.66400        2.97800
C         -1.91000        1.46700        1.48700
C         -1.09200        0.24300        1.13300
C         -1.56800       -0.88200        1.99400
C         -0.55900       -1.39000        2.98800
O         -3.84800        0.98900        3.88600
O         -2.29600        2.88700        3.38900
O         -1.53500        2.58500        0.76300
O         -1.14100       -0.02000       -0.23200
O         -2.72500       -0.51900        2.67200
O          0.62600       -1.76800        2.40900
H         -2.14800        0.13600        4.52600
H         -0.71800        1.55100        3.24400
H         -2.97900        1.28600        1.29500
H         -0.02000        0.41600        1.39600
H         -1.86100       -1.77200        1.37100
H         -1.02000       -2.33900        3.40400
H         -0.45500       -0.72400        3.84400
H         -1.95600        2.52500       -0.12900
C          0.38100       -1.34700       -1.42800
C          1.88900       -1.30400       -1.71700
C          2.00300       -0.29100       -2.82200
C          1.23200        0.95300       -2.66000
C          0.68500        1.46600       -3.98600
C          0.10100       -0.00100       -0.85500
O          0.02700       -2.33700       -0.54700
O          2.38900       -2.51800       -2.11900
O          3.34700       -0.05900       -3.15800
O          0.24000        1.03500       -1.74500
O          1.62500        1.42900       -5.00800
H         -0.16100       -1.44400       -2.40300
H          2.40600       -0.86300       -0.83400
H          1.60400       -0.83400       -3.73000
H          1.98400        1.74200       -2.35400
H          0.35400        2.53000       -3.89900
H         -0.20200        0.90200       -4.32900
H          0.83900        0.19400       -0.04900
H         -0.30600       -3.14700       -1.01600
H          2.25400       -2.57900       -3.11500
H          3.92400       -0.02600       -2.35500
H         -3.85900        1.48400        4.75200
H         -3.07800        3.13700        2.83500
H          0.68600       -2.69900        2.10400
H          1.93500        2.33100       -5.27600
