45
8w4x_BGCGLC_conf11.pdb
C         -2.54200        2.31100        2.38700
C         -1.09000        2.40600        2.79900
C         -0.13700        1.96900        1.70300
C         -0.56900        0.59200        1.25500
C         -2.06800        0.45100        1.12900
C         -2.63900       -0.44500        2.23300
O         -3.13400        3.59000        2.27200
O         -0.84000        3.75200        3.10200
O          1.13100        1.86200        2.24900
O          0.15000        0.09500        0.20100
O         -2.68000        1.69900        1.16400
O         -3.98900       -0.61000        2.06200
H         -3.16400        1.81100        3.18400
H         -0.90400        1.76100        3.68200
H         -0.19900        2.73100        0.91800
H         -0.26000       -0.04600        2.11500
H         -2.33600       -0.07200        0.18900
H         -2.37900       -0.07500        3.24600
H         -2.07600       -1.42200        2.15300
H          1.05600        1.73100        3.22800
C          0.55400       -2.23100       -0.25300
C          1.60300       -2.86900       -1.10300
C          2.70400       -2.00800       -1.59000
C          2.64600       -0.60400       -1.03700
C          1.70800        0.26200       -1.82900
C          0.99500       -0.96000        0.42200
O          0.03600       -3.18000        0.65600
O          1.03400       -3.59000       -2.18100
O          3.96800       -2.57300       -1.43100
O          2.33500       -0.73600        0.30500
O          1.65900        1.56600       -1.34500
H         -0.31200       -1.98200       -0.89900
H          2.08000       -3.67900       -0.47100
H          2.58900       -1.87200       -2.70700
H          3.66700       -0.11200       -1.12000
H          0.72900       -0.16400       -2.03400
H          2.20500        0.36700       -2.84400
H          0.85700       -1.16600        1.53500
H          0.77800       -3.49500        1.26300
H          0.09400       -3.32600       -2.34400
H          4.61200       -2.16100       -2.08800
H         -4.06400        3.44000        2.00600
H         -1.22200        4.31100        2.38100
H         -4.37300       -0.90000        2.92900
H          2.42600        1.78800       -0.76500
