45
8w4x_BGCGLC_conf15.pdb
C          2.80500       -1.36200        2.40800
C          1.61300       -0.88400        3.16000
C          0.38000       -0.65300        2.30600
C          0.84800       -0.86500        0.86800
C          1.35900       -2.28200        0.86100
C          1.35500       -2.92000       -0.48600
O          3.71800       -1.84500        3.35900
O          1.34700       -1.66500        4.28800
O         -0.22700        0.56000        2.51800
O         -0.12800       -0.76100       -0.04700
O          2.57900       -2.39300        1.51700
O          1.64900       -4.27400       -0.31000
H          3.36900       -0.52600        1.90000
H          1.87800        0.12800        3.58000
H         -0.28600       -1.51700        2.51500
H          1.72100       -0.20400        0.73400
H          0.63000       -2.88600        1.48300
H          2.01200       -2.47200       -1.23400
H          0.30400       -2.83100       -0.87100
H          0.46500        1.26300        2.43700
C         -0.36700       -0.22400       -2.42100
C         -0.19500        1.02600       -3.30200
C         -1.06700        2.13800       -2.83000
C         -0.95500        2.29100       -1.32700
C         -2.19900        3.05700       -0.91600
C          0.00400        0.17400       -1.04200
O          0.41200       -1.17100       -3.03500
O         -0.45200        0.72200       -4.63400
O         -0.61000        3.33400       -3.40400
O         -1.00300        1.11000       -0.65700
O         -3.34100        2.30800       -1.27600
H         -1.46500       -0.47400       -2.51000
H          0.86400        1.32600       -3.14900
H         -2.13200        1.99100       -3.12100
H         -0.09300        2.95300       -1.04400
H         -2.28300        4.04600       -1.39800
H         -2.25200        3.22700        0.18500
H          0.92800        0.76900       -1.02600
H         -0.10900       -1.92900       -3.39900
H          0.35200        0.88300       -5.18100
H         -1.34100        3.82900       -3.83100
H          3.99700       -2.76100        3.18900
H          1.88100       -1.34300        5.08300
H          0.86100       -4.80500       -0.06700
H         -3.34100        1.43100       -0.80900
