45
8w4x_BGCGLC_conf43.pdb
C         -1.05500       -3.85500       -1.43900
C          0.43100       -3.67500       -1.47700
C          0.91600       -2.43000       -0.81600
C         -0.08800       -1.30500       -0.85600
C         -1.19900       -1.55700       -1.85400
C         -0.77700       -1.15200       -3.25700
O         -1.40700       -4.17200       -0.10500
O          1.03800       -4.77000       -0.86400
O          2.10800       -2.07200       -1.44700
O         -0.57000       -0.94600        0.38800
O         -1.80300       -2.76900       -1.76400
O         -0.17200        0.12400       -3.15500
H         -1.30300       -4.76600       -2.02200
H          0.77700       -3.73800       -2.55000
H          1.21800       -2.68600        0.22500
H          0.45100       -0.40600       -1.22600
H         -1.99200       -0.80000       -1.57300
H         -1.65500       -0.97400       -3.91100
H         -0.12300       -1.86700       -3.75500
H          2.90200       -2.53700       -1.12500
C         -1.56900        1.09800        0.86800
C         -1.56200        2.11000        1.99500
C         -1.19000        1.53000        3.31700
C         -0.28900        0.35700        3.13400
C         -1.00200       -0.96600        3.36000
C         -0.26400        0.34100        0.79300
O         -1.72200        1.80900       -0.31900
O         -2.85500        2.66700        2.00000
O         -0.50500        2.51600        4.03400
O          0.43000        0.34100        1.98200
O         -0.09600       -2.02100        3.44700
H         -2.45600        0.43400        0.92000
H         -0.88000        2.94900        1.75000
H         -2.06700        1.24200        3.93500
H          0.47600        0.39400        3.96900
H         -1.61500       -1.18800        2.46300
H         -1.60400       -0.94600        4.28900
H          0.32600        0.80200       -0.02300
H         -1.14300        2.59200       -0.40500
H         -3.03700        3.18300        2.82800
H          0.21200        2.10700        4.61300
H         -0.63900       -4.13500        0.50400
H          1.56100       -4.50300       -0.04500
H         -0.10000        0.53400       -4.03400
H         -0.56500       -2.85900        3.19600
