45
8w4x_BGCGLC_conf0.pdb
C         -3.21500        2.32800        1.12600
C         -2.96100        1.23700        2.10000
C         -1.84500        0.29400        1.76800
C         -1.64100        0.08800        0.30300
C         -1.92400        1.33400       -0.51200
C         -3.07500        1.11300       -1.46900
O         -3.30500        3.54400        1.80200
O         -2.76800        1.83000        3.37000
O         -2.14900       -0.94500        2.32900
O         -0.51900       -0.47400       -0.11900
O         -2.12300        2.44900        0.28800
O         -2.83900       -0.02400       -2.26400
H         -4.17200        2.22100        0.57300
H         -3.94400        0.69700        2.23100
H         -0.97300        0.67300        2.31700
H         -2.47100       -0.60200        0.03100
H         -1.05600        1.56800       -1.14100
H         -3.21700        1.93700       -2.16600
H         -4.03800        0.87900       -0.94800
H         -1.35500       -1.42000        2.67200
C          0.10600       -1.36700       -2.17300
C          1.57200       -1.55000       -2.40500
C          2.08200       -2.78800       -1.76800
C          1.53800       -3.02400       -0.41600
C          2.47400       -2.41600        0.61400
C         -0.34200       -1.63500       -0.75000
O         -0.56000       -2.15300       -3.11800
O          2.32900       -0.44800       -2.03600
O          1.86500       -3.86900       -2.64800
O          0.30000       -2.64000       -0.12800
O          3.79600       -2.74800        0.41600
H         -0.10700       -0.30100       -2.46700
H          1.72300       -1.66500       -3.50000
H          3.20700       -2.69900       -1.73300
H          1.60700       -4.14000       -0.24700
H          2.18500       -2.86700        1.60800
H          2.28300       -1.33400        0.73200
H         -1.38000       -2.03900       -0.85600
H         -0.38000       -3.11300       -2.99300
H          2.01500        0.35400       -2.50800
H          2.54800       -4.56100       -2.48000
H         -3.77500        3.49600        2.66400
H         -1.82500        1.61100        3.65600
H         -2.76300        0.17700       -3.21400
H          4.36900       -1.95900        0.59100
