45
8w4x_BGCGLC_conf5.pdb
C         -2.83100        2.97400       -0.74700
C         -2.16600        2.59200       -2.03000
C         -0.90700        1.81100       -1.85700
C         -0.42200        1.77600       -0.42500
C         -0.75900        3.01500        0.31800
C          0.19100        4.11200       -0.18400
O         -3.62200        1.88100       -0.33300
O         -3.07700        1.80400       -2.74300
O          0.04000        2.43600       -2.70000
O         -0.68100        0.57600        0.17800
O         -2.03400        3.48400        0.22500
O          0.08200        5.27600        0.56700
H         -3.59600        3.76000       -0.99700
H         -2.06000        3.52300       -2.63000
H         -1.00100        0.78100       -2.25300
H          0.71000        1.77000       -0.50800
H         -0.50500        2.87200        1.38900
H         -0.04700        4.30200       -1.27200
H          1.23800        3.73400       -0.19500
H         -0.08100        2.17300       -3.63000
C          0.36300       -0.43100        1.99200
C         -0.59300       -1.52100        2.40100
C         -0.13900       -2.81200        1.76300
C          0.63200       -2.53100        0.50300
C          0.40200       -3.73100       -0.42000
C          0.35700       -0.22700        0.49000
O          1.64600       -0.64000        2.48200
O         -1.83400       -1.22200        1.84200
O          0.74700       -3.40500        2.67500
O          0.20500       -1.43100       -0.20000
O          0.79200       -4.92500        0.16400
H         -0.00100        0.51600        2.44200
H         -0.65300       -1.54600        3.48800
H         -0.95500       -3.51200        1.57300
H          1.72400       -2.54200        0.70100
H          0.96100       -3.62000       -1.36300
H         -0.68300       -3.73300       -0.69000
H          1.36300        0.14100        0.23400
H          1.58700       -0.52800        3.46000
H         -2.29200       -2.04800        1.50000
H          0.74100       -4.40400        2.56000
H         -3.44000        1.06800       -0.87700
H         -2.78500        0.85600       -2.80200
H          0.90000        5.32400        1.13400
H          1.77500       -4.92900        0.19800
