45
8w4x_BGCGLC_conf6.pdb
C          0.94400       -2.78100        0.28900
C         -0.42900       -3.23600       -0.05500
C         -1.44300       -2.14600       -0.15700
C         -0.86800       -0.82500        0.32000
C         -0.01100       -1.04400        1.52800
C         -0.77800       -1.44500        2.75100
O          1.69400       -2.42500       -0.85700
O         -0.35700       -3.86800       -1.31500
O         -2.63400       -2.45100        0.52300
O         -0.03800       -0.37900       -0.71400
O          1.06700       -1.83500        1.25800
O         -1.87700       -0.58700        2.97300
H          1.50300       -3.68500        0.67200
H         -0.72200       -4.05100        0.63900
H         -1.75000       -1.95900       -1.21300
H         -1.67300       -0.09500        0.51300
H          0.42100       -0.02900        1.78200
H         -0.09000       -1.39600        3.61900
H         -1.19500       -2.46500        2.69900
H         -3.41700       -2.51900       -0.07100
C          0.67400        1.82500       -1.00300
C          0.66700        3.00400       -1.91700
C         -0.66100        3.12300       -2.59700
C         -1.18000        1.84700       -3.16400
C         -0.93800        1.72500       -4.65300
C         -0.42700        0.84000       -1.22300
O          0.54900        2.31000        0.31600
O          1.72700        2.97100       -2.84200
O         -1.59100        3.74500       -1.78900
O         -0.78700        0.69600       -2.55200
O         -1.34700        2.92000       -5.27200
H          1.67900        1.35600       -1.05300
H          0.82000        3.97100       -1.35600
H         -0.50900        3.81900       -3.47400
H         -2.30500        1.88600       -3.06500
H         -1.57800        0.94000       -5.10600
H          0.10200        1.49600       -4.89200
H         -1.32500        1.15700       -0.66200
H          1.29400        2.02500        0.89900
H          1.45100        3.56000       -3.58100
H         -2.37800        3.15800       -1.66400
H          2.54800       -2.06100       -0.47500
H          0.42200       -3.53400       -1.80300
H         -2.74400       -1.06400        2.89600
H         -0.63100        3.20400       -5.87600
