45
8w4x_BGCGLC_conf29.pdb
C          3.13800        1.11400        0.77300
C          2.85100       -0.27300        1.29800
C          1.72800       -0.25400        2.31100
C          0.51500        0.35200        1.61600
C          0.98000        1.61600        0.92400
C          0.01400        2.76000        1.15500
O          3.01700        1.14300       -0.62900
O          2.43700       -1.14900        0.27000
O          2.09200        0.57700        3.36400
O         -0.00600       -0.49100        0.66300
O          2.24700        2.03200        1.33000
O          0.37400        3.88500        0.43400
H          4.19700        1.40600        0.97400
H          3.79000       -0.68400        1.75100
H          1.52600       -1.28700        2.63200
H         -0.18800        0.57900        2.44200
H          1.08500        1.44000       -0.18700
H         -0.04500        2.94000        2.23300
H         -0.98200        2.40200        0.80800
H          3.03900        0.87600        3.27700
C         -2.32700       -0.37900       -0.03400
C         -2.46800       -1.23800       -1.24100
C         -2.70300       -2.63100       -0.77800
C         -1.78600       -3.10200        0.29500
C         -0.59700       -3.82400       -0.33400
C         -1.31800       -0.89200        0.92800
O         -3.57100       -0.41400        0.63300
O         -1.45400       -1.09400       -2.17400
O         -4.03300       -2.71300       -0.35000
O         -1.31400       -2.20600        1.17300
O          0.25100       -2.94700       -0.99800
H         -2.13600        0.64100       -0.34500
H         -3.40700       -0.89400       -1.76600
H         -2.63700       -3.28000       -1.68800
H         -2.31900       -3.90300        0.85600
H         -0.93300       -4.59400       -1.04900
H          0.00100       -4.26000        0.49800
H         -1.55700       -0.36700        1.90200
H         -3.59800       -1.09500        1.33800
H         -0.85800       -0.34800       -1.92300
H         -4.67400       -2.38900       -1.00900
H          3.73000        0.58600       -1.01800
H          2.17400       -0.67000       -0.54400
H          0.17900        4.72800        0.92200
H          0.38000       -3.14700       -1.94600
