45
8w4x_BGCGLC_conf41.pdb
C         -1.85900        1.40800       -3.39300
C         -0.57400        0.60700       -3.28600
C         -0.52900        0.09100       -1.87700
C         -0.41200        1.22000       -0.86200
C         -1.40900        2.24300       -1.25000
C         -0.72100        3.51200       -1.73500
O         -2.81300        0.51900       -3.94400
O         -0.60200       -0.53600       -4.11100
O          0.50900       -0.79200       -1.62900
O         -0.49500        0.60400        0.31300
O         -2.34500        1.83700       -2.19300
O         -1.62500        4.54900       -1.92700
H         -1.76400        2.21100       -4.17900
H          0.32800        1.19400       -3.50300
H         -1.49000       -0.45100       -1.64900
H          0.61500        1.63100       -1.00400
H         -2.05400        2.59400       -0.39200
H         -0.18600        3.39100       -2.68700
H          0.03400        3.83000       -0.98600
H          0.58700       -1.39200       -2.43800
C         -0.06300        1.09300        2.50200
C          0.50700        0.54900        3.75300
C          0.88300       -0.91000        3.71300
C          1.63100       -1.12500        2.41200
C          2.14600       -2.53200        2.35100
C          0.45400        0.46300        1.22200
O          0.20200        2.46100        2.38800
O         -0.43600        0.68500        4.77700
O          1.60900       -1.23700        4.83500
O          0.69500       -0.91900        1.40100
O          1.16400       -3.48000        2.50600
H         -1.18200        0.95500        2.54900
H          1.38500        1.15500        4.10100
H         -0.05500       -1.50800        3.67800
H          2.45100       -0.41200        2.34200
H          2.86100       -2.68200        3.20500
H          2.74600       -2.67800        1.43300
H          1.45600        0.88600        1.04000
H         -0.62200        2.97900        2.21600
H         -1.27300        0.15900        4.59300
H          1.01100       -1.59500        5.54800
H         -3.71800        0.88400       -3.93700
H          0.28700       -0.64400       -4.51700
H         -1.34600        5.19700       -2.59400
H          1.55400       -4.32200        2.85000
