45
8w4x_BGCGLC_conf39.pdb
C          2.11600        1.06700       -2.74200
C          1.75700        2.15400       -1.78400
C          0.31800        2.19500       -1.38200
C         -0.16600        0.75000       -1.29800
C         -0.00100        0.11200       -2.62100
C         -1.21800        0.48100       -3.48400
O          3.03000        0.19400       -2.14000
O          2.52500        2.03300       -0.60600
O         -0.45000        2.97300       -2.22900
O          0.51500        0.18300       -0.24800
O          1.08500        0.44400       -3.36500
O         -2.38500        0.18600       -2.82600
H          2.71700        1.55800       -3.56600
H          2.01100        3.18100       -2.16800
H          0.25800        2.66300       -0.37000
H         -1.25900        0.83500       -1.03400
H         -0.12100       -1.00400       -2.49800
H         -1.18200       -0.19600       -4.38800
H         -1.14300        1.49600       -3.90200
H         -0.27900        3.92300       -1.96500
C         -0.15000       -1.62600        1.10600
C         -1.31600       -1.96800        2.00500
C         -1.29200       -1.06700        3.19800
C         -0.88000        0.34400        2.92000
C         -0.62700        1.04700        4.22800
C         -0.25300       -0.13900        0.84000
O         -0.21800       -2.34500       -0.10000
O         -1.29600       -3.29600        2.40900
O         -2.60200       -1.00500        3.70000
O          0.16100        0.48300        2.01600
O         -1.73400        0.85100        5.07700
H          0.79600       -1.85100        1.65600
H         -2.24300       -1.82300        1.41900
H         -0.69900       -1.54100        4.01200
H         -1.78300        0.85600        2.48000
H         -0.45900        2.13700        4.07900
H          0.26000        0.58200        4.70500
H         -1.32200        0.10000        0.73000
H          0.65700       -2.28400       -0.55500
H         -0.36300       -3.59500        2.50300
H         -3.17600       -1.74300        3.34600
H          3.95500        0.32900       -2.40200
H          3.37700        2.52700       -0.67500
H         -3.09500        0.86800       -2.90100
H         -2.54800        1.16400        4.60500
