45
8w4x_BGCGLC_conf46.pdb
C          3.40200       -0.26200        2.79800
C          2.60600       -1.48500        2.47000
C          1.95300       -1.47900        1.13100
C          1.33600       -0.09400        0.89700
C          2.52300        0.83700        0.95500
C          2.20100        2.22900        0.49600
O          4.73300       -0.46700        2.48000
O          3.47400       -2.60100        2.50100
O          1.04900       -2.50200        1.03800
O          0.66800       -0.11400       -0.30200
O          2.88800        0.90300        2.29400
O          1.17600        2.82200        1.18700
H          3.35400       -0.16200        3.91900
H          1.83400       -1.70000        3.25100
H          2.74100       -1.57100        0.34700
H          0.70500        0.14800        1.76700
H          3.33800        0.43000        0.35700
H          2.10400        2.21900       -0.60000
H          3.12800        2.83500        0.69700
H          1.06700       -2.81800        0.08200
C         -1.11200        1.41400       -0.92900
C         -1.90400        1.14400       -2.17400
C         -2.93800        0.06400       -2.04200
C         -2.76400       -0.68200       -0.75800
C         -3.45000       -2.03100       -0.90500
C         -0.69200        0.17800       -0.19300
O         -1.82200        2.28600       -0.10400
O         -1.01900        0.89900       -3.23800
O         -4.24200        0.61400       -2.02400
O         -1.42500       -0.94200       -0.52700
O         -2.93000       -2.75800       -1.95000
H         -0.19400        1.95500       -1.23900
H         -2.43500        2.07700       -2.46000
H         -2.94600       -0.62200       -2.92500
H         -3.24400       -0.11600        0.05300
H         -4.53600       -1.90000       -1.02900
H         -3.29800       -2.64800        0.02600
H         -0.87900        0.35700        0.88700
H         -2.27100        2.96900       -0.66300
H         -1.11000       -0.00500       -3.61200
H         -4.88800       -0.11500       -1.95700
H          4.81700       -0.90700        1.61500
H          2.94300       -3.34300        2.11600
H          1.33600        3.80200        1.20900
H         -2.44700       -3.57300       -1.67300
