45
8w4x_BGCGLC_conf20.pdb
C         -2.75700        2.05800        1.67600
C         -2.59600        2.21900        0.19000
C         -1.96800        1.00000       -0.44900
C         -1.50300        0.11500        0.72100
C         -2.76000       -0.26300        1.42900
C         -2.52200       -1.41800        2.33700
O         -3.71100        3.03400        2.05500
O         -3.84300        2.50400       -0.36300
O         -0.92300        1.30800       -1.30600
O         -0.72000       -0.92000        0.25900
O         -3.26300        0.85400        2.08600
O         -3.68400       -1.85100        2.97600
H         -1.83600        2.37600        2.24500
H         -1.93700        3.09000        0.01800
H         -2.77000        0.42700       -0.95300
H         -0.90200        0.80100        1.36200
H         -3.54600       -0.50100        0.64500
H         -1.75000       -1.12000        3.06000
H         -2.12300       -2.26000        1.73900
H         -1.24600        1.22600       -2.25400
C          1.22900       -1.88000        1.38900
C          2.49200       -1.27600        2.02800
C          3.28900       -0.44400        1.09000
C          2.46300        0.27500        0.05700
C          3.36900        0.80600       -1.02600
C          0.58000       -0.73400        0.69100
O          0.52300       -2.46700        2.39900
O          3.26400       -2.24400        2.62400
O          3.95100        0.53900        1.83200
O          1.43000       -0.51300       -0.44300
O          4.35800        1.57700       -0.39900
H          1.57900       -2.66800        0.66600
H          2.08100       -0.59600        2.81900
H          4.08200       -0.99200        0.55000
H          1.98900        1.13800        0.57100
H          2.77000        1.42000       -1.73400
H          3.77800       -0.04700       -1.58500
H          0.65000        0.16600        1.33400
H          0.53500       -3.46300        2.38700
H          3.51000       -2.01800        3.57300
H          3.26100        1.23100        2.05000
H         -3.88500        2.93000        3.03500
H         -4.03100        3.46400       -0.36800
H         -3.93200       -2.77000        2.73800
H          4.10100        2.52400       -0.32600
