45
8w4x_BGCGLC_conf8.pdb
C          2.61700        1.97700       -2.54500
C          2.83500        0.98800       -1.41400
C          1.57000        0.12300       -1.29000
C          0.46700        1.09500       -0.94300
C          0.34700        2.05600       -2.05600
C          0.32000        3.50500       -1.64000
O          3.43400        1.59200       -3.60400
O          3.96200        0.25300       -1.68400
O          1.77000       -0.83700       -0.31200
O         -0.68300        0.34600       -0.70800
O          1.30600        1.90800       -3.01200
O         -0.61400        3.80100       -0.66900
H          2.93800        2.98500       -2.23700
H          2.94600        1.54200       -0.47400
H          1.29600       -0.32700       -2.26800
H          0.71000        1.55500        0.04000
H         -0.64800        1.87100       -2.54700
H         -0.02600        4.05200       -2.56100
H          1.32000        3.92400       -1.43000
H          1.08900       -1.55200       -0.50300
C         -2.56100        0.82900        0.76100
C         -2.73200        1.17000        2.24800
C         -2.27400        0.03900        3.11700
C         -1.11700       -0.73900        2.59000
C         -1.25900       -2.16900        3.13000
C         -1.14900        0.39000        0.58000
O         -2.96400        1.90500        0.01900
O         -4.09000        1.38600        2.53700
O         -1.89500        0.56900        4.36100
O         -1.08100       -0.87500        1.21000
O         -0.16500       -2.93700        2.71900
H         -3.22100       -0.07100        0.62000
H         -2.22900        2.12800        2.41900
H         -3.13600       -0.64700        3.28500
H         -0.12200       -0.34600        2.88200
H         -2.14700       -2.66300        2.71000
H         -1.31500       -2.20900        4.22100
H         -0.48900        1.04500        1.20200
H         -3.91300        1.73100       -0.26300
H         -4.65300        0.63300        2.23200
H         -2.52500        1.23200        4.69900
H          3.07700        0.77400       -4.04100
H          3.73900       -0.42000       -2.39200
H         -0.26800        4.41100        0.04600
H         -0.28900       -3.19800        1.77700
