45
8w4x_BGCGLC_conf37.pdb
C          0.01600        1.41300        3.35000
C         -0.74700        0.19000        2.95500
C          0.03500       -0.57900        1.94600
C          0.31400        0.30800        0.72500
C          0.71700        1.67700        1.16200
C         -0.33100        2.73300        0.89800
O          0.55900        1.19400        4.62100
O         -0.94000       -0.67500        4.05600
O         -0.59400       -1.74300        1.52600
O          1.38000       -0.32200        0.08200
O          1.07200        1.70900        2.51400
O         -0.73000        2.75400       -0.43800
H         -0.69000        2.26200        3.47900
H         -1.76800        0.40600        2.58700
H          1.02000       -0.83400        2.36400
H         -0.59000        0.37300        0.08100
H          1.62400        1.99400        0.59600
H          0.14800        3.71500        1.09200
H         -1.23200        2.62900        1.52300
H         -1.42900       -1.91300        1.99100
C          1.77200       -0.03000       -2.28100
C          1.12100       -0.30800       -3.58900
C          0.42900       -1.63200       -3.71100
C          0.14400       -2.31600       -2.42900
C          0.12000       -3.84300       -2.58800
C          0.95100       -0.67100       -1.19000
O          1.87200        1.34500       -2.06600
O          2.07800       -0.18900       -4.59900
O         -0.79000       -1.41000       -4.35500
O          1.06400       -2.05900       -1.40400
O          1.37100       -4.32000       -2.92100
H          2.80800       -0.45000       -2.28600
H          0.40800        0.54500       -3.77700
H          1.01600       -2.29500       -4.40600
H         -0.83100       -1.97600       -2.02200
H         -0.65500       -4.11100       -3.35400
H         -0.22900       -4.31600       -1.64800
H         -0.11200       -0.36000       -1.35300
H          2.77300        1.58300       -1.76800
H          2.85600        0.29700       -4.26800
H         -0.69800       -1.49100       -5.32100
H          0.74500        2.03400        5.11200
H         -0.72400       -0.22300        4.91000
H         -1.68400        2.51200       -0.52400
H          1.27800       -5.03800       -3.61300
