45
8w4x_BGCGLC_conf18.pdb
C          1.62700        3.21200        1.26500
C          1.50300        3.00500       -0.21300
C          1.57200        1.52500       -0.45700
C          0.45500        0.84700        0.29100
C          0.05100        1.50700        1.54600
C         -0.02700        0.47400        2.68200
O          1.49100        4.57600        1.53400
O          0.39800        3.59800       -0.77000
O          2.81900        1.03800       -0.09100
O         -0.58600        0.68600       -0.62600
O          0.77900        2.52400        2.04300
O         -0.64500        1.06800        3.78500
H          2.68600        2.95400        1.55000
H          2.39500        3.46400       -0.68800
H          1.47400        1.38600       -1.55400
H          0.82900       -0.17500        0.51300
H         -1.00800        1.85200        1.42500
H          1.04300        0.30400        2.99700
H         -0.49700       -0.45900        2.38300
H          3.43600        1.18600       -0.84100
C         -2.23800       -1.08700       -0.71500
C         -2.38000       -2.50400       -1.16300
C         -1.10500       -3.15300       -1.61800
C         -0.20300       -2.26500       -2.41200
C         -0.32200       -2.63000       -3.88400
C         -0.81000       -0.64500       -0.95400
O         -2.58800       -0.93400        0.62400
O         -3.32300       -2.61300       -2.19300
O         -0.43000       -3.75400       -0.53200
O         -0.55900       -0.90500       -2.30100
O         -1.61200       -2.43500       -4.32900
H         -2.88200       -0.43100       -1.33200
H         -2.75000       -3.12700       -0.30200
H         -1.41900       -4.03200       -2.24500
H          0.87400       -2.34900       -2.14400
H         -0.06300       -3.72500       -3.93600
H          0.41100       -2.09900       -4.49800
H         -0.08800       -1.25600       -0.38900
H         -3.47300       -1.34300        0.76200
H         -3.51500       -3.57400       -2.33300
H         -0.88200       -3.51200        0.31300
H          2.15600        5.06900        0.97800
H          0.04700        4.35600       -0.23000
H         -0.02000        1.33600        4.49000
H         -1.57200       -1.85900       -5.13700
