45
8w4x_BGCGLC_conf44.pdb
C         -1.51100       -1.20700        2.85700
C         -2.40700       -0.25400        2.15100
C         -1.77400        0.97900        1.60600
C         -0.28000        0.93000        1.46400
C          0.31600        0.11700        2.59400
C          0.16700        0.72200        3.94000
O         -1.94600       -2.51100        2.60500
O         -3.15200       -0.94300        1.16600
O         -2.13500        2.09700        2.36800
O          0.17900        0.34500        0.33100
O         -0.18100       -1.16900        2.48000
O          0.69600        2.02800        3.97600
H         -1.56000       -1.10700        3.97600
H         -3.19500        0.05100        2.89800
H         -2.26900        1.18000        0.61200
H          0.09000        1.97400        1.55900
H          1.40500        0.03800        2.38300
H          0.81000        0.13700        4.63200
H         -0.82800        0.75700        4.36400
H         -1.79000        2.93100        2.01800
C          2.31400        0.47100       -0.79000
C          2.56800       -0.04800       -2.15300
C          1.47200        0.14600       -3.15500
C          0.14000        0.26400       -2.50100
C         -0.29900       -1.02500       -1.89500
C          0.98500        1.06000       -0.50400
O          3.33700        1.39100       -0.45900
O          2.96600       -1.40700       -2.14600
O          1.67400        1.30700       -3.93000
O          0.20800        1.33900       -1.63300
O         -0.29800       -1.97400       -2.94400
H          2.50300       -0.38300       -0.07300
H          3.46600        0.45800       -2.61400
H          1.42900       -0.74900       -3.82700
H         -0.61000        0.53800       -3.26700
H         -1.31900       -0.99000       -1.51100
H          0.40600       -1.44800       -1.15000
H          1.11800        2.06500       -0.05100
H          3.09700        2.28600       -0.78800
H          3.74800       -1.48100       -1.54100
H          0.88200        1.33600       -4.54000
H         -1.87900       -2.75100        1.65200
H         -3.61500       -0.33600        0.56100
H          1.66100        1.97000        4.07000
H         -0.42200       -2.88100       -2.60900
