45
8w4x_BGCGLC_conf25.pdb
C         -2.57600        0.18400        2.71500
C         -1.11300        0.25900        3.15700
C         -0.17500       -0.12400        2.06700
C         -0.81000       -0.56500        0.78200
C         -2.19800       -1.06700        0.90600
C         -2.43600       -2.43400        0.30800
O         -2.84800        1.10200        1.71700
O         -0.90100        1.56900        3.62000
O          0.67900       -1.12700        2.58100
O         -0.74400        0.52800       -0.11300
O         -2.71200       -1.10300        2.19400
O         -1.98200       -2.57500       -0.98000
H         -3.22800        0.26200        3.60200
H         -1.03800       -0.40300        4.04900
H          0.49300        0.74500        1.89100
H         -0.16600       -1.37600        0.38300
H         -2.89300       -0.38100        0.33900
H         -3.54900       -2.58300        0.28800
H         -2.06200       -3.22000        1.00100
H          1.48700       -0.73300        3.00000
C         -0.71700        0.35800       -2.46300
C         -1.41800        1.72300       -2.43300
C         -0.28200        2.72300       -2.55200
C          0.80100        2.47300       -1.54600
C          0.46100        3.25700       -0.28400
C          0.06900        0.29400       -1.19200
O          0.15800        0.42400       -3.56500
O         -2.03900        1.93300       -1.21900
O          0.22300        2.71400       -3.85900
O          1.12700        1.17800       -1.30100
O          1.56900        3.26100        0.59400
H         -1.41900       -0.45400       -2.63800
H         -2.09400        1.84300       -3.28300
H         -0.69900        3.74000       -2.37900
H          1.71500        2.97800       -1.96500
H         -0.43000        2.85900        0.20700
H          0.32800        4.32500       -0.55400
H          0.51600       -0.72900       -1.13500
H         -0.11100       -0.22300       -4.26200
H         -3.01300        1.96200       -1.25200
H          1.14500        3.09900       -3.79700
H         -2.70500        2.00200        2.11200
H         -0.46100        1.58600        4.50400
H         -2.60700       -3.13300       -1.50300
H          1.29200        3.56400        1.47300
