45
8w4x_BGCGLC_conf10.pdb
C         -1.52200        0.76900       -3.37900
C         -1.85500       -0.62200       -2.92800
C         -1.37600       -0.88900       -1.50600
C         -0.39100        0.26100       -1.23800
C         -1.27600        1.47300       -1.17300
C         -0.64500        2.66700       -0.50800
O         -2.43500        1.05300       -4.42300
O         -3.24400       -0.77700       -3.01500
O         -0.80300       -2.12800       -1.36800
O          0.34700        0.02800       -0.09300
O         -1.72000        1.75600       -2.44500
O          0.45400        3.13500       -1.22100
H         -0.52400        0.84100       -3.90300
H         -1.40400       -1.32900       -3.64700
H         -2.25200       -0.72600       -0.83800
H          0.26900        0.24600       -2.12000
H         -2.19800        1.24100       -0.57500
H         -0.44600        2.45800        0.54200
H         -1.41400        3.46800       -0.53200
H         -1.03000       -2.45000       -0.45300
C          2.53000        0.90100        0.28900
C          3.41200        0.54400        1.43300
C          3.28600       -0.91700        1.84900
C          3.27600       -1.66700        0.53600
C          3.41600       -3.14400        0.83000
C          1.71300       -0.16400       -0.31800
O          3.32000        1.58300       -0.66600
O          3.23300        1.38300        2.55500
O          4.36700       -1.31400        2.61400
O          2.07200       -1.45700       -0.05900
O          3.34400       -3.87000       -0.35900
H          1.84200        1.70000        0.66900
H          4.49200        0.66700        1.17300
H          2.35700       -1.07800        2.42900
H          4.11500       -1.32600       -0.07100
H          2.58500       -3.47100        1.49600
H          4.36700       -3.38700        1.36600
H          1.80800       -0.06500       -1.43300
H          4.20500        1.11100       -0.63200
H          2.69600        0.85600        3.22800
H          5.19200       -1.42800        2.05900
H         -2.20700        0.58400       -5.25800
H         -3.48500       -0.61200       -3.96000
H          0.35300        2.94200       -2.18300
H          3.20200       -3.28900       -1.12700
