45
8w4x_BGCGLC_conf34.pdb
C          2.47500        1.04400        2.40400
C          1.79200       -0.19600        2.91400
C          0.53100       -0.41700        2.15600
C          0.25300        0.67400        1.15400
C          1.44700        1.14600        0.40300
C          1.39300        2.64800        0.20800
O          3.73600        1.21600        3.01300
O          2.69400       -1.26400        2.71700
O         -0.53800       -0.41700        3.05500
O         -0.76400        0.35400        0.28000
O          2.65200        0.88700        1.03800
O          2.45900        3.09400       -0.57200
H          1.91300        1.96400        2.68300
H          1.60800       -0.13300        4.01900
H          0.56200       -1.42600        1.70900
H         -0.12200        1.52400        1.76800
H          1.44300        0.71400       -0.62300
H          1.44200        3.21900        1.14800
H          0.47600        2.91700       -0.34500
H         -0.20300       -0.50100        3.98700
C         -2.24800        1.56200       -1.04800
C         -2.00300        0.37700       -1.97100
C         -2.20400       -0.93700       -1.26900
C         -3.07200       -0.88700       -0.06500
C         -2.73100       -2.07800        0.83800
C         -1.90800        1.08000        0.34800
O         -3.57200        1.98600       -1.13400
O         -0.66700        0.44100       -2.36400
O         -2.86300       -1.77600       -2.20000
O         -2.95100        0.23000        0.70900
O         -3.61800       -2.11800        1.91000
H         -1.60800        2.38400       -1.40400
H         -2.65700        0.48400       -2.86600
H         -1.22900       -1.47900       -1.09300
H         -4.14600       -1.03800       -0.35500
H         -1.69000       -2.04500        1.15600
H         -2.85200       -3.01200        0.23400
H         -1.93500        1.88500        1.10900
H         -4.12300        1.34800       -0.61500
H         -0.47200        1.26800       -2.87400
H         -2.50800       -1.63900       -3.11400
H          4.00000        0.28300        3.26700
H          2.55900       -1.91700        3.45900
H          2.95200        2.33200       -0.98900
H         -3.75000       -3.04400        2.25500
