45
8w4x_BGCGLC_conf22.pdb
C         -0.78100        4.08500        1.31200
C          0.27300        3.98200        0.25400
C          1.11500        2.76900        0.28200
C          0.68100        1.64000        1.16100
C         -0.15600        2.11200        2.33400
C          0.73900        2.85700        3.29400
O         -1.93500        4.73300        0.86400
O         -0.38000        4.09100       -0.98900
O          2.43400        3.14200        0.56000
O          0.12000        0.57800        0.47800
O         -1.18900        2.86000        1.81800
O          1.74100        1.98000        3.73900
H         -0.42400        4.67300        2.18500
H          0.88200        4.93300        0.31000
H          1.19000        2.33500       -0.75800
H          1.59400        1.20600        1.63300
H         -0.57500        1.24700        2.85400
H          0.17400        3.26100        4.15100
H          1.26400        3.71100        2.82700
H          2.68700        3.77100       -0.18000
C         -0.10900       -1.58300        1.32200
C          0.14900       -2.96600        0.73000
C         -0.44500       -2.88200       -0.66100
C          0.31300       -1.81100       -1.39700
C         -0.70500       -0.92700       -2.08700
C          0.78200       -0.62300        0.55800
O          0.24900       -1.67700        2.66100
O         -0.44500       -3.96800        1.49000
O         -0.41800       -4.10600       -1.31200
O          1.21300       -1.11900       -0.64300
O         -1.55000       -1.76500       -2.81400
H         -1.14900       -1.30500        1.14100
H          1.23000       -3.09400        0.59800
H         -1.50500       -2.58600       -0.51700
H          0.87700       -2.32500       -2.20600
H         -0.25100       -0.24400       -2.82500
H         -1.35600       -0.41000       -1.34900
H          1.68800       -0.50000        1.18900
H         -0.29800       -1.10200        3.26100
H          0.30400       -4.58100        1.76300
H         -0.10500       -4.77700       -0.68000
H         -2.16500        4.44100       -0.06100
H          0.24400        3.81300       -1.70300
H          1.44400        1.02400        3.66000
H         -1.08100       -2.62500       -3.06300
