45
8w4x_BGCGLC_conf35.pdb
C          2.15300        2.98200       -0.34000
C          1.80900        2.48500       -1.75200
C          0.45100        1.83900       -1.56000
C          0.71700        0.61900       -0.69100
C          1.55200        0.88000        0.51000
C          2.43900       -0.36100        0.71700
O          1.07400        3.78300        0.03200
O          1.77700        3.51200       -2.67800
O         -0.02300        1.33100       -2.77600
O         -0.42600       -0.10100       -0.44100
O          2.41100        1.92800        0.46800
O          3.33700       -0.48800       -0.34200
H          3.06000        3.58500       -0.45400
H          2.57100        1.71100       -1.99400
H         -0.20400        2.58300       -1.10600
H          1.32800       -0.02100       -1.36600
H          0.97500        0.95200        1.45600
H          1.86000       -1.29200        0.77300
H          3.04000       -0.25000        1.64100
H          0.76500        1.27400       -3.39600
C         -0.67400       -2.39800        0.00200
C         -1.99000       -3.09100        0.14400
C         -2.85400       -3.04500       -1.08100
C         -1.94600       -2.67200       -2.23900
C         -2.80300       -2.73900       -3.49000
C         -0.57500       -1.32200       -1.02100
O          0.33100       -3.38100       -0.16700
O         -2.74300       -2.61800        1.22000
O         -3.49000       -4.23600       -1.36600
O         -1.57600       -1.37300       -1.98700
O         -3.93900       -1.96200       -3.29300
H         -0.43500       -1.99400        1.03100
H         -1.83300       -4.17900        0.35300
H         -3.62000       -2.24600       -0.95200
H         -1.11200       -3.37600       -2.25900
H         -3.05200       -3.77800       -3.71400
H         -2.20900       -2.29500       -4.32200
H          0.35700       -1.48800       -1.61100
H          0.92100       -3.18300       -0.93700
H         -2.23600       -2.56500        2.06700
H         -4.44400       -4.25700       -1.10700
H          0.90700        4.39100       -0.73400
H          2.69300        3.88400       -2.71800
H          4.17900       -0.02700       -0.10800
H         -4.59600       -2.44800       -2.73300
