45
8w4x_BGCGLC_conf23.pdb
C          1.80000        2.50800        1.68700
C          0.73100        2.01900        2.60700
C         -0.05200        0.99800        1.81000
C         -0.31700        1.39200        0.39700
C          0.28600        2.66000       -0.07600
C         -0.75000        3.78200       -0.17700
O          2.56700        1.42700        1.28400
O          1.36600        1.35800        3.68200
O         -1.23200        0.68600        2.50700
O         -0.03200        0.29200       -0.41200
O          1.33900        3.17100        0.60500
O         -1.16500        4.21900        1.05700
H          2.44200        3.20700        2.28200
H          0.10500        2.79800        3.05800
H          0.56100        0.07300        1.86700
H         -1.43200        1.50900        0.29900
H          0.64000        2.50500       -1.11900
H         -1.60600        3.50900       -0.80700
H         -0.23000        4.62300       -0.69700
H         -1.06600        0.15500        3.30200
C         -0.82100       -0.33300       -2.50700
C         -0.16500       -1.67800       -2.75100
C         -1.25500       -2.72500       -2.60800
C         -2.09100       -2.31100       -1.42400
C         -2.49900       -3.57600       -0.67700
C         -1.12600       -0.25400       -1.02300
O         -1.96400       -0.15100       -3.27700
O          0.72500       -1.88900       -1.70400
O         -1.97200       -2.67500       -3.81600
O         -1.29300       -1.56800       -0.53600
O         -1.34000       -4.25200       -0.33500
H         -0.05800        0.44500       -2.78000
H          0.32900       -1.72600       -3.74100
H         -0.77300       -3.71200       -2.46500
H         -3.01800       -1.78600       -1.69000
H         -3.09800       -4.22700       -1.37600
H         -3.11700       -3.34300        0.20600
H         -2.08400        0.24700       -0.79500
H         -2.02200        0.75000       -3.66800
H          1.54800       -2.37000       -1.97200
H         -1.27000       -2.84600       -4.51900
H          3.10400        1.73200        0.49000
H          1.69900        2.01400        4.34100
H         -0.69700        5.05000        1.30900
H         -1.48000       -5.22100       -0.15900
