45
8w4x_BGCGLC_conf36.pdb
C         -0.49400        0.79900       -4.10600
C         -1.58600        1.56200       -3.39900
C         -1.39600        1.39400       -1.88200
C          0.08700        1.09900       -1.62700
C          0.87600        1.90400       -2.60900
C          2.33400        2.05600       -2.28300
O         -0.70900        0.86800       -5.48800
O         -1.57800        2.88000       -3.79400
O         -2.20700        0.33300       -1.51000
O          0.44300        1.04700       -0.34000
O          0.78700        1.21600       -3.82700
O          2.50500        2.80100       -1.09300
H         -0.62100       -0.27200       -3.84600
H         -2.56100        1.13700       -3.67600
H         -1.77100        2.29200       -1.42300
H          0.15200        0.02000       -1.98300
H          0.48700        2.94700       -2.71700
H          2.87000        2.63500       -3.06200
H          2.84100        1.07700       -2.18800
H         -1.68900       -0.50400       -1.43300
C          1.89000       -0.18100        1.06000
C          2.08400       -1.61200        1.54300
C          0.90500       -1.99100        2.36200
C         -0.40800       -1.50300        1.84500
C         -1.36100       -1.36500        3.02300
C          0.65600       -0.19800        0.21300
O          3.03900        0.27900        0.43000
O          3.29400       -1.76700        2.19300
O          0.83800       -3.39000        2.54000
O         -0.39800       -0.35400        1.13800
O         -2.67500       -1.09400        2.61200
H          1.75800        0.43300        1.97600
H          2.11100       -2.22700        0.61900
H          1.04500       -1.57300        3.38200
H         -0.81600       -2.30800        1.19500
H         -1.07000       -0.54500        3.70400
H         -1.42300       -2.33800        3.59000
H          0.53700       -1.05300       -0.45500
H          3.55200       -0.52100        0.14400
H          3.99300       -2.14400        1.60800
H          0.53300       -3.82800        1.69600
H         -0.55000        1.76100       -5.86700
H         -1.99700        3.50200       -3.15200
H          2.65700        3.75300       -1.30100
H         -2.72400       -0.17300        2.20800
