45
8w4x_BGCGLC_conf33.pdb
C         -1.01900       -2.60900       -2.15900
C         -2.18400       -2.52500       -1.21700
C         -2.25200       -1.25500       -0.41200
C         -1.26000       -0.24500       -1.04300
C         -1.51300       -0.37800       -2.51100
C         -1.13100        0.81200       -3.32400
O         -1.26600       -3.68700       -3.01100
O         -3.36500       -2.77200       -1.93200
O         -1.93300       -1.39700        0.91800
O         -1.48800        0.98400       -0.49000
O         -0.81200       -1.49600       -2.95000
O         -1.86500        1.90400       -2.85200
H         -0.10300       -2.86500       -1.58600
H         -2.07500       -3.36300       -0.49700
H         -3.27300       -0.83200       -0.49600
H         -0.26700       -0.68600       -0.76000
H         -2.59700       -0.62800       -2.72600
H         -1.37600        0.69100       -4.40700
H         -0.04600        1.02800       -3.30600
H         -2.72500       -1.38200        1.51000
C          0.10900        2.75900       -0.01500
C          1.15900        3.17100        0.95600
C          1.17100        2.49800        2.27300
C          0.10800        1.47400        2.51200
C         -0.41000        1.48100        3.93500
C         -0.46800        1.41900        0.35400
O          0.65400        2.75500       -1.31000
O          0.99500        4.55500        1.20800
O          2.42100        1.85200        2.42500
O         -0.97200        1.58200        1.66900
O         -1.26600        0.36500        4.01300
H         -0.73900        3.50000        0.02300
H          2.17200        3.12500        0.45200
H          1.13000        3.21400        3.14500
H          0.53000        0.44200        2.36500
H         -1.05100        2.37100        4.06600
H          0.39200        1.44900        4.67800
H          0.36800        0.69500        0.43100
H          0.85200        3.71900       -1.51700
H          1.07500        5.07800        0.37100
H          2.96400        1.88700        1.60300
H         -2.06900       -4.20100       -2.76500
H         -4.08800       -2.87000       -1.23900
H         -1.41800        2.70900       -3.23800
H         -0.87700       -0.43200        3.58300
