45
8w4x_BGCGLC_conf7.pdb
C         -0.35000       -2.30700        2.89700
C          0.10200       -3.03100        1.67900
C         -0.14500       -2.30000        0.37700
C         -0.34600       -0.80000        0.65600
C          0.58700       -0.50700        1.79600
C          0.96800        0.92400        1.96100
O          0.35800       -2.87600        3.97900
O          1.40600       -3.49300        1.79600
O         -1.17800       -2.82900       -0.37200
O         -0.15300       -0.08500       -0.49100
O         -0.07800       -0.95400        2.94100
O          1.66500        1.29600        0.80200
H         -1.44100       -2.50700        3.09100
H         -0.53500       -3.95700        1.61100
H          0.78300       -2.37300       -0.21900
H         -1.39500       -0.65000        1.02500
H          1.51300       -1.13500        1.62900
H          1.70000        1.01600        2.78700
H          0.14200        1.59300        2.19500
H         -0.84800       -3.39500       -1.11700
C         -1.05500        2.03100       -1.00900
C         -0.12000        2.17700       -2.21900
C         -1.03400        1.99700       -3.43600
C         -2.01600        0.90600       -3.11500
C         -2.26700        0.15300       -4.41100
C         -1.34200        0.55900       -0.91300
O         -2.22000        2.77600       -1.21900
O          0.75500        1.08200       -2.14700
O         -1.69600        3.21700       -3.64000
O         -1.58500        0.00400       -2.18000
O         -1.08800       -0.44700       -4.83000
H         -0.54900        2.47500       -0.15800
H          0.40900        3.12900       -2.23800
H         -0.40100        1.68900       -4.27000
H         -3.02300        1.28100       -2.80500
H         -2.54900        0.94300       -5.16200
H         -3.11600       -0.55400       -4.32700
H         -2.17300        0.35200       -0.21700
H         -2.56900        3.01400       -0.32800
H          0.88400        0.64400       -3.02400
H         -1.00300        3.86400       -3.92600
H          0.34400       -2.21900        4.71900
H          1.41900       -4.21200        2.48400
H          2.28400        0.52300        0.63400
H         -1.21100       -0.84500       -5.72800
