45
8w4x_BGCGLC_conf12.pdb
C         -0.53300        0.43800        3.60000
C         -0.38800       -1.05100        3.51100
C         -0.04100       -1.56000        2.13600
C          0.16400       -0.28600        1.27100
C          1.16600        0.51800        2.03600
C          1.95400        1.50600        1.25400
O         -0.64700        0.75300        4.95600
O          0.44100       -1.53800        4.51200
O         -0.98500       -2.39900        1.59100
O          0.50500       -0.64100       -0.01000
O          0.54900        1.15200        3.11400
O          2.92500        2.06900        2.08000
H         -1.51000        0.76400        3.15300
H         -1.41200       -1.46700        3.74100
H          0.97000       -2.01900        2.19800
H         -0.80100        0.27900        1.25800
H          1.89700       -0.20000        2.51600
H          1.36000        2.35800        0.87400
H          2.48300        1.05800        0.38900
H         -0.51900       -3.15000        1.10800
C          0.13200        0.47300       -2.15200
C         -1.03800        0.89500       -3.01700
C         -2.08100       -0.13900       -3.21700
C         -2.16900       -1.14500       -2.09700
C         -2.88200       -2.39800       -2.51100
C         -0.42200       -0.28800       -0.98300
O          0.77000        1.60400       -1.70200
O         -0.59600        1.33300       -4.27800
O         -3.32900        0.48400       -3.31000
O         -0.95200       -1.48000       -1.56700
O         -2.14000       -3.08200       -3.46200
H          0.77700       -0.16100       -2.80000
H         -1.47900        1.80000       -2.52800
H         -1.92000       -0.64000       -4.20900
H         -2.76000       -0.67700       -1.26700
H         -3.92400       -2.23600       -2.80300
H         -2.90100       -3.04900       -1.58900
H         -1.29800        0.26300       -0.59900
H          1.49600        1.83500       -2.33300
H          0.40300        1.29900       -4.32300
H         -3.26900        1.45800       -3.28500
H         -1.49900        0.44800        5.36100
H          1.31100       -1.86100        4.14700
H          2.52500        2.65600        2.76500
H         -2.61000       -3.82300       -3.87800
