45
8w4x_BGCGLC_conf31.pdb
C          3.29100       -1.22700        0.64200
C          2.01200       -0.88800        1.33300
C          2.05300        0.59800        1.67000
C          2.00000        1.29800        0.32600
C          3.05400        0.73000       -0.58800
C          3.98200        1.87400       -1.02500
O          3.12500       -2.30100       -0.25900
O          0.92000       -1.14300        0.51000
O          3.14900        0.91000        2.42900
O          0.68900        1.06700       -0.14900
O          3.89100       -0.17400       -0.00300
O          4.89400        1.29000       -1.91500
H          4.00600       -1.59900        1.40800
H          1.88100       -1.50400        2.24800
H          1.14700        0.81000        2.27200
H          2.14000        2.38000        0.51500
H          2.55900        0.38300       -1.51700
H          4.51100        2.19600       -0.11700
H          3.46300        2.67000       -1.56100
H          3.97700        1.10000        1.96300
C         -0.30600        2.54900       -1.69700
C         -1.73600        2.19200       -2.01800
C         -2.08600        0.99500       -1.12400
C         -2.19300        1.53500        0.26500
C         -2.44400        0.44800        1.29100
C         -0.03100        2.24600       -0.23900
O         -0.08200        3.89400       -1.98800
O         -1.95400        1.88200       -3.34700
O         -3.26400        0.40000       -1.56500
O         -1.12700        2.33300        0.57700
O         -3.54900       -0.33700        0.91700
H          0.33300        1.89200       -2.34900
H         -2.37000        3.04800       -1.67500
H         -1.23400        0.28700       -1.23000
H         -3.11200        2.18600        0.28300
H         -2.61400        0.90200        2.28800
H         -1.51300       -0.15000        1.36700
H          0.66100        3.06700        0.10300
H          0.55400        4.01100       -2.75000
H         -2.79200        1.36300       -3.39200
H         -3.02400       -0.35400       -2.12900
H          2.60500       -3.01200        0.20300
H          1.18100       -1.51500       -0.37300
H          4.98100        1.83000       -2.74300
H         -3.32000       -1.28400        1.10100
