24
8w4x_BGC_conf41.pdb
C          1.36700       -2.24000       -0.25300
C          2.29800       -1.12700       -0.64700
C          1.95100        0.05400        0.22900
C          0.57500        0.50500       -0.13500
C          0.69600        1.60300       -1.18400
C         -0.04100       -1.74400       -0.23900
O         -0.78500       -2.58100       -1.10400
O          1.72400       -2.68700        1.01700
O          2.19400       -0.76500       -1.96900
O          1.91800       -0.36400        1.57600
O         -0.24100       -0.46800       -0.66900
O          1.50900        2.60600       -0.69200
H          1.51600       -3.11300       -0.92900
H          3.37200       -1.41000       -0.48900
H          2.69500        0.86400        0.09500
H          0.05900        1.01900        0.72800
H          1.01400        1.24400       -2.16400
H         -0.35400        1.98100       -1.33000
H         -0.50200       -1.92400        0.76900
H          1.22600        0.16800        2.02800
H          2.40500        2.60400       -1.15100
H         -0.43300       -2.61400       -2.01100
H          2.67800       -2.84100        1.14400
H          1.39300       -1.11200       -2.42200
