24
8w4x_BGC_conf23.pdb
C          0.44200        0.03400       -1.16200
C          0.44900       -1.42200       -0.84400
C         -0.68400       -1.78300        0.12200
C         -1.88100       -1.11700       -0.52500
C         -3.17700       -1.75700       -0.11800
C         -0.72900        0.83500       -0.74400
O         -0.29800        1.82300        0.17000
O          0.57600        0.15000       -2.56400
O          1.68800       -1.86500       -0.37900
O         -0.80100       -3.13600        0.28600
O         -1.77800        0.20400       -0.14900
O         -4.25300       -1.08700       -0.69700
H          1.40300        0.45700       -0.74500
H          0.22600       -2.04300       -1.75100
H         -0.39500       -1.27100        1.07700
H         -1.82900       -1.12900       -1.63700
H         -3.17900       -2.79200       -0.51000
H         -3.31100       -1.78000        0.97600
H         -1.16900        1.42600       -1.60100
H         -1.13800       -3.27100        1.22800
H         -4.25600       -1.26000       -1.66300
H         -0.62300        2.71400       -0.03800
H          1.44300        0.48600       -2.84600
H          2.21900       -2.26700       -1.13500
