24
8w4x_BGC_conf42.pdb
C          0.24600       -2.19500       -1.15000
C         -0.88500       -1.22800       -1.35900
C         -0.71600        0.08800       -0.67500
C          0.72800        0.47300       -0.43500
C          1.07300        0.42400        1.05300
C          1.60100       -1.54700       -1.24300
O          2.48400       -2.11200       -0.30900
O          0.09400       -3.20100       -2.11200
O         -2.05400       -1.82000       -0.83700
O         -1.39000        1.03900       -1.45700
O          1.61100       -0.19000       -1.23500
O          1.11800       -0.85000        1.55700
H          0.09700       -2.72300       -0.18100
H         -1.06900       -1.13700       -2.45700
H         -1.22200        0.10600        0.32200
H          0.79700        1.55100       -0.70100
H          2.11100        0.84000        1.11800
H          0.40900        1.12000        1.58000
H          2.03300       -1.85200       -2.23100
H         -1.17900        0.90200       -2.42400
H          0.67800       -0.94100        2.43800
H          3.24600       -1.48000       -0.22900
H          0.40500       -2.84800       -2.98700
H         -2.86900       -1.41500       -1.22400
