24
8w4x_BGC_conf18.pdb
C         -0.08000       -0.23000       -0.79000
C          0.47700       -0.93500        0.45300
C          0.26600        0.12700        1.54100
C         -1.11000        0.68800        1.44800
C         -1.15200        2.18700        1.20600
C         -1.58300       -0.28900       -0.61200
O         -2.23000        0.41500       -1.61700
O          0.32400       -0.93700       -1.91500
O          1.80700       -1.27400        0.31000
O          0.60900       -0.37600        2.79300
O         -1.99600       -0.00200        0.65900
O         -0.22500        2.84000        2.04000
H          0.32700        0.79600       -0.80200
H         -0.18100       -1.80500        0.65900
H          0.99300        0.93500        1.30300
H         -1.53000        0.58600        2.49400
H         -1.08700        2.47900        0.16000
H         -2.16400        2.53900        1.56000
H         -1.83300       -1.37600       -0.78500
H          1.33800       -1.01300        2.71600
H          0.49300        3.23900        1.45100
H         -2.25100       -0.15000       -2.45000
H          0.15200       -0.41500       -2.73500
H          1.85200       -2.22800        0.03400
