24
8w4x_BGC_conf25.pdb
C          0.34600       -1.39500       -0.97300
C         -0.95900       -0.64900       -1.13200
C         -1.32400        0.12400        0.12800
C         -0.01900        0.33600        0.86600
C         -0.11600        1.39500        1.91400
C          0.66300       -1.80700        0.41900
O          0.08600       -3.02000        0.71900
O          1.40600       -0.74400       -1.61600
O         -2.00200       -1.49900       -1.53400
O         -1.93500        1.32800       -0.12100
O          0.31100       -0.89800        1.39900
O         -1.06500        1.15700        2.89500
H          0.20800       -2.34100       -1.57300
H         -0.78700        0.12000       -1.92200
H         -1.98600       -0.54400        0.71300
H          0.77400        0.63200        0.17000
H          0.90900        1.51700        2.34200
H         -0.35700        2.36200        1.42400
H          1.78000       -1.94400        0.49500
H         -2.21100        1.37700       -1.05500
H         -1.76100        1.88100        2.91100
H         -0.86800       -2.92500        0.95900
H          0.96000       -0.24700       -2.37200
H         -2.43100       -1.12700       -2.34700
