24
8w4x_BGC_conf38.pdb
C         -0.93000       -1.37000       -0.99400
C         -1.47900       -1.14700        0.38600
C         -0.80200        0.08200        0.96300
C         -0.94000        1.16500       -0.09300
C         -0.66600        2.51700        0.51000
C          0.15900       -0.43000       -1.38200
O          1.37200       -0.86400       -0.84200
O         -2.00600       -1.30700       -1.89900
O         -1.23200       -2.22100        1.24000
O         -1.36700        0.49400        2.16300
O         -0.09800        0.89500       -1.14700
O         -0.84100        3.50500       -0.44000
H         -0.53100       -2.39900       -1.10100
H         -2.56700       -0.92900        0.40000
H          0.27500       -0.15500        1.16100
H         -1.98700        1.14700       -0.44000
H         -1.40900        2.69400        1.32000
H          0.35100        2.57300        0.91800
H          0.29700       -0.52600       -2.49200
H         -0.64400        0.74800        2.81800
H         -1.79700        3.59100       -0.66200
H          2.08600       -0.18000       -0.88000
H         -1.99900       -0.44800       -2.41000
H         -1.95000       -2.89100        1.18000
