24
8w4x_BGC_conf28.pdb
C         -2.56800        0.53100       -1.45600
C         -1.98000       -0.79000       -1.86000
C         -0.77400       -1.11400       -0.98000
C         -1.06200       -0.56500        0.38400
C         -0.13500       -1.11500        1.45500
C         -1.49600        1.38500       -0.78000
O         -0.39100        1.44200       -1.60900
O         -3.61200        0.37000       -0.53600
O         -1.59900       -0.65700       -3.20300
O         -0.71100       -2.51600       -0.85500
O         -1.13800        0.80600        0.43300
O          1.15300       -0.65000        1.34300
H         -2.96700        1.11900       -2.29100
H         -2.75500       -1.57100       -1.76500
H          0.17700       -0.81800       -1.42500
H         -2.07500       -0.97600        0.66300
H         -0.59500       -0.95400        2.45000
H         -0.10700       -2.23100        1.28700
H         -1.85900        2.40500       -0.64900
H          0.24000       -2.79900       -0.72200
H          1.71700       -1.16800        1.95100
H          0.45400        1.58400       -1.14200
H         -3.58000        1.04900        0.17000
H         -2.38900       -0.91600       -3.74700
