24
8w4x_BGC_conf43.pdb
C         -0.69700        1.61400       -1.11200
C         -0.92400        0.32200       -1.86200
C          0.09100       -0.67300       -1.32700
C         -0.18000       -0.85500        0.13300
C          1.08500       -0.92400        0.95700
C         -0.76300        1.38700        0.37700
O          0.38900        1.91400        0.94500
O         -1.61700        2.58700       -1.50300
O         -0.69800        0.58500       -3.21700
O         -0.10400       -1.87500       -1.98900
O         -1.02000        0.07600        0.69600
O          0.73400       -1.29800        2.25100
H          0.31600        1.98700       -1.41800
H         -1.95800       -0.02400       -1.75200
H          1.09900       -0.27200       -1.53300
H         -0.68500       -1.85100        0.30400
H          1.72800       -1.77300        0.58200
H          1.70100       -0.02100        0.91700
H         -1.60900        1.97700        0.83200
H          0.01000       -1.79000       -2.95700
H         -0.22000       -1.12200        2.40100
H          0.29900        2.11800        1.91000
H         -1.16900        3.46000       -1.58900
H         -1.47700        0.36200       -3.76100
