24
8w4x_BGC_conf4.pdb
C          0.52100       -0.05300        0.50700
C          0.26700        0.58500       -0.84700
C         -1.05100        1.24800       -0.98800
C         -1.99500        1.17000        0.15500
C         -3.22400        0.32100       -0.15800
C         -0.12000        0.91600        1.48300
O          0.24200        0.70500        2.79700
O          1.87200       -0.23900        0.72100
O          0.53500       -0.36900       -1.85100
O         -0.88900        2.57300       -1.43500
O         -1.47400        0.69000        1.33300
O         -2.89200       -1.02200       -0.29900
H          0.00700       -1.02700        0.58200
H          1.07700        1.34900       -0.94300
H         -1.55900        0.74600       -1.86500
H         -2.39000        2.18700        0.36300
H         -3.92600        0.48200        0.69500
H         -3.69200        0.65200       -1.09800
H          0.15200        1.94100        1.15900
H         -0.01900        2.90400       -1.07900
H         -2.02500       -1.16700       -0.70800
H          0.68600        1.51000        3.20500
H          2.09600       -1.17500        0.42300
H          1.51600       -0.50400       -1.92600
