24
8w4x_BGC_conf34.pdb
C          1.51300        1.39200       -0.28500
C          0.98300        0.67200       -1.49700
C          0.26700       -0.58200       -1.00200
C         -0.99400       -0.10200       -0.33000
C         -1.59300       -1.09200        0.62400
C          0.50500        1.23500        0.83000
O          0.87400        0.15100        1.61500
O          1.69600        2.74900       -0.48700
O          2.02800        0.36500       -2.34800
O          0.02700       -1.36800       -2.12700
O         -0.78000        1.07600        0.36400
O         -1.86400       -2.32600        0.06900
H          2.50500        0.94700       -0.02100
H          0.24500        1.25900       -2.07100
H          0.93600       -1.14500       -0.33700
H         -1.73900        0.06900       -1.12900
H         -0.98400       -1.27000        1.53300
H         -2.55200       -0.65200        0.96500
H          0.49700        2.14600        1.46800
H          0.51900       -2.23700       -2.09900
H         -2.81700       -2.60700        0.24900
H          1.67400        0.32200        2.15000
H          2.20700        2.97400       -1.29500
H          1.82400       -0.42900       -2.89700
