24
8w4x_BGC_conf44.pdb
C          0.11000       -0.28200        1.69800
C          0.25200        0.79400        0.65800
C         -0.46100        0.45000       -0.62100
C         -0.58400       -1.01800       -0.85800
C          0.62200       -1.61800       -1.57100
C         -1.15900       -1.05100        1.38300
O         -1.35400       -1.95200        2.43000
O          0.02000        0.30800        2.96300
O          1.57500        1.12700        0.38600
O         -1.75600        1.00700       -0.55900
O         -1.00400       -1.76200        0.21600
O          1.72700       -1.74900       -0.76900
H          0.99100       -0.95700        1.75900
H         -0.21100        1.72400        1.08100
H          0.04600        0.89500       -1.49400
H         -1.41400       -1.11500       -1.62200
H          0.31600       -2.62000       -1.93200
H          0.80700       -0.99800       -2.47100
H         -1.99400       -0.33300        1.37500
H         -2.26500        0.85300       -1.38700
H          2.57900       -1.45300       -1.13700
H         -2.08800       -2.57600        2.21300
H          0.95300        0.50200        3.27300
H          1.71800        1.16100       -0.60800
