24
8w4x_BGC_conf12.pdb
C          2.10800       -1.64100        0.54800
C          1.21100       -2.18700       -0.52700
C          0.57500       -1.12400       -1.35100
C          0.26500        0.14400       -0.61100
C         -1.17100        0.18500       -0.13600
C          1.47200       -0.49800        1.27100
O          0.44900       -0.85100        2.11500
O          3.25400       -1.15400       -0.09100
O          0.27700       -3.10300       -0.02300
O          1.36100       -0.85900       -2.45400
O          1.18000        0.48700        0.35500
O         -2.05400       -0.17800       -1.17700
H          2.43000       -2.46300        1.19400
H          1.88300       -2.79300       -1.19000
H         -0.41500       -1.52300       -1.70500
H          0.33500        0.97700       -1.37300
H         -1.35900       -0.56100        0.66200
H         -1.41800        1.23000        0.16500
H          2.27600       -0.06100        1.92800
H          2.03700       -0.19100       -2.21800
H         -2.95900        0.16900       -1.00000
H          0.21300       -1.79400        2.12200
H          3.65200       -1.91100       -0.58900
H          0.70500       -3.65200        0.67600
