24
8w4x_BGC_conf32.pdb
C         -0.29000        0.03800        1.60800
C         -0.04500       -0.81300        0.39600
C          1.33400       -0.50200       -0.10100
C          1.59100        0.96500       -0.19900
C          1.08600        1.49100       -1.51400
C         -0.02400        1.49100        1.37500
O         -1.00200        2.11400        0.61100
O          0.58400       -0.41900        2.59800
O         -0.97400       -0.64900       -0.61500
O          2.28000       -1.02400        0.78600
O          1.23100        1.71300        0.88300
O          1.58300        2.76800       -1.72200
H         -1.31100       -0.15500        1.95300
H         -0.07600       -1.88800        0.73400
H          1.48200       -0.94500       -1.10700
H          2.71600        1.06700       -0.27200
H          1.43700        0.83700       -2.32500
H         -0.01900        1.52000       -1.57900
H         -0.06600        1.97600        2.38400
H          3.06500       -0.41800        0.88000
H          0.86500        3.42500       -1.79000
H         -0.66400        3.02300        0.41900
H          1.37600        0.18400        2.63800
H         -1.88800       -0.47100       -0.32500
