24
8w4x_BGC_conf3.pdb
C          1.33300       -1.02300        0.15800
C          0.18400       -1.81600        0.76300
C         -0.80700       -0.80000        1.31200
C         -1.13700        0.22700        0.27100
C         -2.03000        1.27700        0.94400
C          0.71500       -0.14800       -0.91300
O          1.66900        0.34800       -1.79000
O          2.30000       -1.88000       -0.37600
O          0.61100       -2.67100        1.76000
O         -1.94700       -1.48400        1.66000
O          0.01700        0.85400       -0.22700
O         -1.33600        1.86800        1.98300
H          1.82200       -0.45600        0.95900
H         -0.30500       -2.33800       -0.08700
H         -0.30800       -0.31600        2.17700
H         -1.64400       -0.22900       -0.59100
H         -2.39700        2.01500        0.18800
H         -2.91600        0.72700        1.32100
H         -0.03100       -0.77200       -1.44200
H         -2.73600       -1.29600        1.09000
H         -1.54300        1.36900        2.82500
H          1.35200        1.16100       -2.24500
H          1.85800       -2.59700       -0.89700
H         -0.20100       -3.20300        2.01200
