24
8w4x_BGC_conf8.pdb
C          1.42000        1.18200       -0.10800
C          1.03700        1.35700       -1.57100
C          0.39300        0.01500       -1.91400
C         -0.90900        0.02100       -1.19100
C         -1.44600       -1.40100       -1.17900
C          0.21300        0.82600        0.69100
O          0.49800       -0.24600        1.54900
O          2.12500        2.27200        0.38200
O          2.12200        1.61700       -2.37800
O          0.25000       -0.14600       -3.27900
O         -0.95700        0.65900        0.00300
O         -1.30500       -1.87100       -2.49600
H          2.10500        0.29200       -0.10100
H          0.26200        2.15700       -1.59500
H          1.08400       -0.80000       -1.55200
H         -1.62500        0.57700       -1.86500
H         -0.90000       -2.06200       -0.50800
H         -2.54100       -1.33300       -0.95500
H          0.04500        1.68800        1.38900
H          1.18200       -0.16400       -3.65300
H         -0.96400       -2.80700       -2.47600
H          0.03000       -0.13600        2.42700
H          2.60100        1.98600        1.20400
H          1.77600        1.92000       -3.25000
