20
5bvs_EIC_model_4_chainB.pdb
C          5.88500        1.07900       -2.96300
C          7.37100        1.22300       -2.65400
C          8.24100        0.65600       -3.75800
C          8.88400        1.75300       -4.56100
C          7.84300        2.44500       -5.39400
C          8.38400        3.70100       -5.96800
C          7.53500        4.51300       -6.67500
C          6.10100        4.12200       -6.78400
C          5.30900        5.14400       -7.53500
C          4.05300        5.40900       -7.11500
C          3.67500        4.88000       -5.77100
C          2.19100        4.88200       -5.57200
C          1.86100        4.37400       -4.19800
C          1.46700        2.94000       -4.23900
C          1.24400        2.40100       -2.84800
C          0.64300        1.02000       -2.88400
C          1.60800        0.01600       -3.44800
C          2.12000       -0.98800       -2.43200
O          1.86100       -0.83300       -1.22600
O          2.80300       -1.94000       -2.83400
