20
5bvs_EIC_model_14_chainB.pdb
C         -0.29500        3.23900       -6.64200
C         -0.18400        3.59700       -8.10400
C         -0.26000        5.09200       -8.33600
C          0.63200        5.50200       -9.46500
C          2.06700        5.23200       -9.11100
C          2.71400        4.39900      -10.15100
C          3.77500        3.57600       -9.81500
C          4.13400        3.39300       -8.38200
C          5.34800        2.53900       -8.22000
C          5.41800        1.70500       -7.15900
C          4.17300        1.52400       -6.35300
C          4.41300        0.73100       -5.09500
C          3.12000        0.44400       -4.38300
C          2.55500        1.67000       -3.72400
C          1.15300        1.43500       -3.21700
C          0.74500        2.46200       -2.19000
C          0.64300        3.84100       -2.77200
C         -0.75900        4.43700       -2.76500
O         -0.90200        5.63900       -2.91200
O         -1.74400        3.67800       -2.62400
