20
5bvs_EIC_model_22_chainB.pdb
C          4.48000        0.66800        1.88100
C          5.96300        0.53100        1.65500
C          6.75500        0.92600        2.88100
C          7.93200        0.03000        3.05800
C          7.48400       -1.40000        3.18200
C          8.29100       -2.27500        2.30200
C          7.73200       -3.40200        1.73200
C          6.25900       -3.62800        1.80600
C          5.88900       -4.98400        1.29200
C          4.68100       -5.16400        0.72200
C          3.86800       -3.94100        0.42700
C          2.43800       -4.27400        0.09000
C          1.69000       -3.04900       -0.35300
C          1.24600       -2.19900        0.79900
C          0.82300       -0.82100        0.35300
C         -0.04300       -0.12100        1.36700
C          0.67700        0.14700        2.65800
C          0.84800        1.61600        3.01600
O          1.25100        1.91600        4.12500
O          0.58900        2.48700        2.15800
