51
5bvs_EIC_model_2_chainB_pH74.pdb
C         -1.99900        7.29600        1.30700
C         -2.41100        8.65300        1.85700
C         -1.62600        9.04200        3.09400
C         -0.86800       10.32700        2.89000
C          0.47400       10.05600        2.25200
C          0.56100       10.73200        0.92900
C          1.43800       10.28100       -0.04100
C          2.14700        8.97900        0.13100
C          3.20200        8.79800       -0.91600
C          3.51700        7.55100       -1.32900
C          2.60100        6.43800       -0.92500
C          3.26800        5.09700       -1.03000
C          2.28900        4.00100       -0.70400
C          2.39700        3.56500        0.72000
C          1.13400        2.88100        1.18700
C          1.35500        2.08100        2.44300
C          1.49700        2.96000        3.65000
C          0.30800        2.94200        4.60200
O         -0.67300        2.22100        4.36400
O          0.34700        3.66900        5.60200
H         -2.58200        7.07100        0.43800
H         -2.16400        6.54500        2.05100
H         -0.96200        7.31700        1.04500
H         -3.45100        8.62000        2.10700
H         -2.21000        9.38400        1.10200
H         -0.93100        8.26200        3.32300
H         -2.31800        9.18600        3.89700
H         -1.43600       10.97300        2.25400
H         -0.71100       10.79000        3.84200
H          1.24900       10.42600        2.89000
H          0.58700        9.00100        2.11300
H         -0.04000       11.54700        0.73300
H          1.60300       10.84800       -0.88800
H          2.60600        8.95600        1.09700
H          1.43300        8.18800        0.03500
H          3.68400        9.61700       -1.31800
H          4.35700        7.37200       -1.90100
H          1.74200        6.44800       -1.56300
H          2.32400        6.59100        0.09700
H          4.08700        5.05500       -0.34300
H          3.62300        4.96100       -2.03000
H          2.48500        3.16200       -1.33900
H          1.30100        4.38100       -0.86100
H          2.57500        4.42300        1.33400
H          3.20500        2.86700        0.79700
H          0.79200        2.22400        0.41500
H          0.40900        3.63800        1.40200
H          2.24700        1.50100        2.33100
H          0.50100        1.45300        2.59000
H          1.63800        3.96600        3.31400
H          2.32900        2.57700        4.20300
