51
5bvs_EIC_model_42_chainB_pH74.pdb
C         -1.90900       -6.46500       -4.70200
C         -2.06100       -7.97100       -4.77700
C         -2.69200       -8.44700       -6.06900
C         -1.67100       -9.06900       -6.98100
C         -0.84800       -7.98900       -7.60800
C          0.36600       -8.53800       -8.25900
C          1.31500       -7.64600       -8.67800
C          1.11500       -6.21000       -8.33900
C          2.22800       -5.36500       -8.84600
C          2.56000       -4.26400       -8.14900
C          1.94000       -4.09400       -6.80400
C          2.21900       -2.74100       -6.22400
C          1.75500       -2.66900       -4.79400
C          0.33100       -2.25100       -4.70100
C         -0.15400       -2.27900       -3.27700
C         -1.53400       -1.69500       -3.14500
C         -2.54300       -2.50300       -3.89800
C         -3.67400       -3.03100       -3.03700
O         -3.52800       -3.09200       -1.80700
O         -4.71200       -3.40700       -3.58700
H         -1.45900       -6.19800       -3.76900
H         -2.87200       -6.00500       -4.77800
H         -1.28800       -6.12900       -5.50600
H         -1.09100       -8.41500       -4.68900
H         -2.71300       -8.26300       -3.98000
H         -3.44500       -9.17300       -5.84200
H         -3.11800       -7.60200       -6.56700
H         -1.03700       -9.72000       -6.41700
H         -2.16700       -9.63200       -7.74400
H         -1.43900       -7.48500       -8.34400
H         -0.53900       -7.31300       -6.83800
H          0.49000       -9.55400       -8.39100
H          2.14200       -7.95800       -9.21100
H          0.19800       -5.87500       -8.77700
H          1.08700       -6.12000       -7.27300
H          2.73300       -5.61700       -9.71000
H          3.21700       -3.56500       -8.53000
H          2.33400       -4.84000       -6.14500
H          0.88000       -4.19400       -6.91400
H          1.70400       -2.00000       -6.79800
H          3.27400       -2.56600       -6.25200
H          2.36000       -1.96000       -4.26800
H          1.84600       -3.64400       -4.36300
H         -0.26700       -2.91800       -5.28600
H          0.24800       -1.24900       -5.06700
H          0.52100       -1.71300       -2.67000
H         -0.19300       -3.30000       -2.95900
H         -1.80600       -1.67500       -2.11000
H         -1.52200       -0.70600       -3.55400
H         -2.04200       -3.33700       -4.34400
H         -2.98300       -1.85200       -4.62400
