51
5bvs_EIC_model_10_chainB_pH74.pdb
C          3.29400        4.97600       -5.38400
C          2.73200        5.72100       -6.56800
C          3.80500        6.48600       -7.32200
C          3.24900        7.05300       -8.59700
C          2.75200        5.94000       -9.49500
C          1.51300        6.32800      -10.22300
C          0.54100        5.36400      -10.48400
C          0.66000        4.02900       -9.81300
C         -0.39500        3.05900      -10.26300
C         -0.77800        2.07400       -9.40100
C         -0.30800        2.18700       -7.97600
C         -0.56400        0.93400       -7.17500
C         -0.25000        1.15100       -5.70700
C          1.20400        0.94000       -5.39000
C          1.54400        1.35000       -3.96800
C          2.91500        0.87900       -3.52900
C          4.02400        1.49700       -4.34300
C          5.03700        2.31000       -3.54000
O          4.76300        2.67700       -2.38500
O          6.11500        2.60800       -4.07200
H          2.50500        4.45300       -4.88400
H          3.74600        5.67100       -4.70700
H          4.02900        4.27500       -5.72000
H          2.27700        5.01800       -7.23400
H          2.01700        6.42900       -6.20300
H          4.16400        7.28500       -6.70800
H          4.60500        5.81600       -7.56100
H          2.43600        7.71000       -8.36600
H          4.02200        7.59100       -9.10500
H          3.51400        5.70500      -10.20900
H          2.52500        5.09400       -8.88100
H          1.37500        7.30300      -10.53200
H         -0.24300        5.56500      -11.12500
H          0.56900        4.16800       -8.75600
H          1.61200        3.61800      -10.07700
H         -0.81900        3.13600      -11.20100
H         -1.36500        1.28500       -9.71300
H         -0.82200        3.00200       -7.51000
H          0.75000        2.34500       -7.99700
H          0.05400        0.14600       -7.55200
H         -1.59900        0.67700       -7.26700
H         -0.83000        0.46400       -5.12700
H         -0.48900        2.16700       -5.47100
H          1.79300        1.52300       -6.06700
H          1.41500       -0.10400       -5.49100
H          0.81200        0.93200       -3.30800
H          1.54700        2.41900       -3.93500
H          3.05600        1.14200       -2.50100
H          2.95700       -0.18100       -3.67200
H          4.55000        0.70900       -4.84000
H          3.55500        2.18400       -5.01600
