51
5bvs_EIC_model_28_chainB_pH74.pdb
C          1.94500       -3.60900        5.65200
C          3.02000       -3.46500        6.67900
C          3.21400       -4.73300        7.46800
C          4.66800       -4.96600        7.70000
C          5.34200       -5.17600        6.37800
C          6.80400       -5.16300        6.53400
C          7.56700       -5.22400        5.40900
C          6.86700       -5.25700        4.10300
C          7.81300       -5.07300        2.97700
C          7.45000       -4.27300        1.96900
C          6.22800       -3.45100        2.16800
C          5.86600       -2.71100        0.92300
C          4.79200       -1.70400        1.20400
C          3.45500       -2.34300        1.30500
C          2.40300       -1.32800        1.63700
C          1.03300       -1.82500        1.30400
C          0.61600       -2.93600        2.20900
C         -0.46000       -2.56300        3.20500
O         -0.75700       -1.37300        3.37800
O         -1.01700       -3.46300        3.83900
H          1.83900       -2.68900        5.11500
H          1.02100       -3.84900        6.13500
H          2.20500       -4.39200        4.97100
H          2.75300       -2.67600        7.35100
H          3.93600       -3.24500        6.17200
H          2.80500       -5.55700        6.92200
H          2.71600       -4.64200        8.41100
H          5.09500       -4.11600        8.19000
H          4.80300       -5.82900        8.31800
H          5.04000       -6.12000        5.97500
H          5.05900       -4.38400        5.71700
H          7.23800       -5.10900        7.46900
H          8.59700       -5.24700        5.46300
H          6.37700       -6.20200        3.99500
H          6.15800       -4.45600        4.08100
H          8.72800       -5.55000        2.97100
H          7.99400       -4.22800        1.09300
H          5.41600       -4.09300        2.44100
H          6.42200       -2.73800        2.94200
H          6.73200       -2.20700        0.54900
H          5.50400       -3.41000        0.19800
H          4.77400       -0.98500        0.41200
H          5.01000       -1.23500        2.14100
H          3.47900       -3.08700        2.07300
H          3.21600       -2.78900        0.36200
H          2.44800       -1.11100        2.68400
H          2.59100       -0.45000        1.05500
H          1.02800       -2.17900        0.29400
H          0.34400       -1.01600        1.42900
H          1.47600       -3.26400        2.75400
H          0.20100       -3.69900        1.58400
