51
5bvs_EIC_model_11_chainB_pH74.pdb
C          0.70200       -3.72300        3.94000
C          1.58800       -4.42800        4.94700
C          0.97200       -4.50200        6.32600
C          0.69300       -5.92500        6.70700
C         -0.60800       -6.36600        6.10500
C         -0.53100       -7.78000        5.65800
C         -1.42500       -8.22600        4.71000
C         -2.33900       -7.23800        4.06600
C         -3.20100       -7.88200        3.03000
C         -3.40100       -7.22700        1.86300
C         -2.53200       -6.04200        1.59700
C         -3.06000       -5.19900        0.47200
C         -2.09800       -4.08700        0.15800
C         -2.41200       -2.85800        0.94000
C         -1.34600       -1.81300        0.75800
C         -1.75400       -0.48800        1.34500
C         -1.84500       -0.55400        2.83800
C         -0.82800        0.30800        3.56400
O          0.11600        0.81200        2.93500
O         -0.95900        0.47100        4.78000
H          1.19000       -3.70300        2.98800
H          0.51700       -2.72100        4.26700
H         -0.22700       -4.24700        3.85300
H          2.51500       -3.89800        5.01600
H          1.72600       -5.43200        4.60400
H          0.05500       -3.95100        6.33100
H          1.65900       -4.08600        7.03200
H          1.48200       -6.55100        6.34500
H          0.63300       -6.00000        7.77300
H         -1.38300       -6.27100        6.83700
H         -0.81900       -5.75000        5.25600
H          0.18000       -8.41700        6.05100
H         -1.46200       -9.22400        4.45000
H         -2.96500       -6.80300        4.81700
H         -1.74100       -6.49100        3.58700
H         -3.63300       -8.80400        3.20000
H         -4.12000       -7.53200        1.18900
H         -2.48200       -5.44400        2.48300
H         -1.56300       -6.39900        1.31600
H         -3.18900       -5.81000       -0.39700
H         -3.99800       -4.77600        0.76500
H         -2.15800       -3.86000       -0.88600
H         -1.11300       -4.41000        0.42100
H         -2.47900       -3.11200        1.97700
H         -3.34100       -2.46000        0.58900
H         -1.16100       -1.68600       -0.28800
H         -0.46500       -2.14500        1.26700
H         -2.71000       -0.21200        0.95000
H         -1.01100        0.23700        1.08600
H         -1.69800       -1.57000        3.13800
H         -2.81100       -0.17800        3.10300
