20
5bvs_EIC_model_19_chainB.pdb
C         -0.48200       -4.24400       -2.11500
C         -0.28800       -5.75000       -2.15700
C          1.17300       -6.15400       -2.01500
C          1.41100       -7.61200       -2.34500
C          0.89100       -8.55100       -1.27100
C         -0.27900       -9.35500       -1.74700
C         -1.42400       -9.47500       -0.94600
C         -1.56000       -8.61100        0.27500
C         -2.73400       -8.96600        1.14700
C         -3.32600       -7.95300        1.86200
C         -2.96700       -6.54000        1.46100
C         -3.32500       -5.48100        2.49300
C         -3.00900       -4.07300        1.99700
C         -1.52200       -3.76300        1.97700
C         -1.19900       -2.45800        1.26100
C          0.20000       -1.92300        1.55400
C          1.29800       -2.87700        1.14800
C          2.38000       -2.28900        0.23900
O          2.13700       -1.27500       -0.44200
O          3.48000       -2.85900        0.18000
