51
5bvs_EIC_model_5_chainB_pH74.pdb
C         -3.49200        0.33100       -2.37700
C         -4.58200        1.19900       -2.95400
C         -5.95400        0.56400       -2.86500
C         -7.03800        1.57900       -3.06200
C         -6.99400        2.62400       -1.97900
C         -6.77400        3.97800       -2.54300
C         -6.08000        4.93700       -1.82100
C         -5.35200        4.55700       -0.58100
C         -4.78200        5.74400        0.12400
C         -3.60100        5.62100        0.76200
C         -2.82300        4.36200        0.54000
C         -1.66100        4.21600        1.49000
C         -0.80000        3.02400        1.15100
C         -1.45500        1.71100        1.47600
C         -0.60600        0.53600        1.06900
C         -1.15300       -0.80000        1.53100
C         -2.55900       -1.04800        1.05100
C         -2.82100       -2.46300        0.54300
O         -1.89800       -3.11700        0.04300
O         -3.96500       -2.92000        0.61900
H         -2.55100        0.83200       -2.46900
H         -3.45600       -0.59700       -2.90900
H         -3.69600        0.14200       -1.34400
H         -4.60000        2.12500       -2.41800
H         -4.36200        1.34100       -3.99100
H         -6.03900       -0.18800       -3.62100
H         -6.06500        0.13600       -1.89100
H         -7.98800        1.08700       -3.03700
H         -6.89200        2.05800       -4.00800
H         -6.19600        2.39400       -1.30500
H         -7.93400        2.62000       -1.46900
H         -7.14000        4.20800       -3.48000
H         -6.06900        5.91700       -2.14500
H         -4.55300        3.89300       -0.84000
H         -6.05000        4.08700        0.07900
H         -5.28500        6.64500        0.12300
H         -3.24700        6.36700        1.38000
H         -2.44700        4.36500       -0.46200
H         -3.48500        3.54000        0.71400
H         -2.04000        4.09700        2.48400
H         -1.05600        5.09500        1.40900
H         -0.58500        3.04700        0.10300
H          0.08800        3.09300        1.74500
H         -1.62600        1.66300        2.53100
H         -2.37300        1.65800        0.93000
H          0.37100        0.66400        1.48700
H         -0.59300        0.51500       -0.00100
H         -0.52100       -1.57700        1.15600
H         -1.17300       -0.78900        2.60100
H         -3.22700       -0.85700        1.86500
H         -2.71200       -0.39500        0.21700
