51
5bvs_EIC_model_35_chainB_pH74.pdb
C         -2.78200        5.73000       -2.84800
C         -2.29600        7.13800       -3.06700
C         -3.21300        7.94400       -3.95300
C         -3.29100        9.34300       -3.44600
C         -3.94300        9.33100       -2.09600
C         -3.47800       10.45800       -1.26400
C         -3.66500       10.38100        0.09300
C         -4.18200        9.10500        0.65400
C         -4.31900        9.16800        2.13600
C         -4.10900        8.04600        2.84500
C         -3.54800        6.86900        2.11400
C         -3.72100        5.59500        2.88500
C         -3.05400        4.45300        2.18000
C         -3.92800        3.86900        1.12600
C         -3.19200        2.83500        0.32100
C         -4.13300        1.93300       -0.42200
C         -4.89000        2.67500       -1.47300
C         -4.56700        2.27100       -2.89200
O         -5.29500        2.64000       -3.79200
O         -3.54900        1.58200       -3.11100
H         -2.09400        5.21000       -2.21500
H         -2.85100        5.22600       -3.78900
H         -3.74600        5.75300       -2.38400
H         -2.22300        7.62600       -2.11700
H         -1.34700        7.07800       -3.55700
H         -2.83100        7.94800       -4.95200
H         -4.19000        7.50700       -3.94600
H         -3.87100        9.93800       -4.12000
H         -2.30800        9.75800       -3.37200
H         -3.70500        8.41200       -1.60200
H         -5.00000        9.42600       -2.23100
H         -3.02500       11.28100       -1.69100
H         -3.45300       11.18400        0.70500
H         -3.50500        8.31600        0.40200
H         -5.15100        8.92700        0.23700
H         -4.56900       10.05200        2.60700
H         -4.32600        7.99900        3.85300
H         -2.50400        7.03200        1.94600
H         -4.07800        6.77100        1.19000
H         -4.76500        5.38400        2.98500
H         -3.27200        5.71300        3.84900
H         -2.15200        4.80600        1.72600
H         -2.84800        3.69100        2.90200
H         -4.77600        3.41100        1.59000
H         -4.23600        4.65400        0.46800
H         -2.55900        3.33200       -0.38400
H         -2.61900        2.23400        0.99600
H         -3.57000        1.15100       -0.88700
H         -4.83700        1.53300        0.27800
H         -5.93400        2.51000       -1.31000
H         -4.60500        3.70200       -1.38000
