20
5bvs_EIC_model_21_chainB.pdb
C         -1.40000        4.94500       -1.50900
C         -1.40300        6.30500       -2.19600
C         -2.80600        6.80100       -2.52100
C         -3.04300        8.18100       -1.96400
C         -3.12200        8.13400       -0.45500
C         -2.15800        9.09000        0.15200
C         -1.67600        8.87700        1.43900
C         -1.93300        7.57300        2.12300
C         -1.47400        7.59200        3.55300
C         -1.07000        6.43000        4.12600
C         -0.85200        5.24800        3.22400
C         -0.79300        3.94300        3.97800
C         -0.44100        2.79600        3.06000
C         -1.65100        2.19600        2.41300
C         -1.28600        1.16800        1.36200
C         -2.48700        0.38600        0.86800
C         -3.52100        1.27600        0.23000
C         -3.89000        0.90400       -1.20600
O         -3.11000        0.21100       -1.88600
O         -4.96000        1.31700       -1.66900
