20
5bvs_EIC_model_45_chainB.pdb
C          1.40400       -3.79900        3.17500
C          1.67000       -4.87600        4.21300
C          1.58500       -6.27600        3.63800
C          2.91700       -6.95400        3.66400
C          3.81700       -6.35200        2.62500
C          5.17600       -6.18500        3.17400
C          6.08700       -5.42300        2.48900
C          5.67300       -4.74000        1.24000
C          6.75800       -3.85100        0.74100
C          6.44800       -2.60100        0.36700
C          5.06900       -2.12800        0.66500
C          4.67800       -0.98500       -0.22800
C          3.26900       -0.55700        0.05000
C          2.29100       -1.45100       -0.62700
C          0.88700       -1.06300       -0.27100
C         -0.09100       -1.56800       -1.28000
C         -0.18800       -3.05800       -1.24400
C         -1.53200       -3.56600       -0.76700
O         -2.30700       -2.79600       -0.18600
O         -1.81400       -4.74800       -0.96200
