20
5bvs_EIC_model_27_chainB.pdb
C         -3.41400        4.05200        0.37200
C         -3.63700        5.52200        0.08800
C         -4.95800        6.03900        0.61500
C         -4.74900        7.11300        1.64500
C         -4.11900        6.52500        2.88400
C         -3.17000        7.48100        3.51300
C         -2.20800        6.99200        4.38600
C         -2.02600        5.51300        4.51700
C         -1.03700        5.14900        5.58000
C         -0.33600        3.99200        5.45000
C         -0.38400        3.30100        4.12200
C         -0.00200        1.84500        4.21100
C          0.01700        1.19500        2.84900
C         -1.30400        0.59700        2.48800
C         -1.30300        0.03300        1.08700
C         -2.52900       -0.80000        0.79100
C         -3.80300       -0.01300        0.94300
C         -4.73200       -0.05100       -0.26100
O         -5.92200        0.17700       -0.10500
O         -4.25000       -0.29700       -1.39200
