20
5bvs_EIC_model_25_chainB.pdb
C         -2.64200        2.81600       -3.67400
C         -3.13800        4.25800       -3.67200
C         -4.52800        4.34100       -4.24300
C         -4.61000        5.26100       -5.42000
C         -3.54000        4.92500       -6.42700
C         -4.12000        4.39900       -7.69600
C         -3.29700        3.71900       -8.57900
C         -1.92300        3.33300       -8.13400
C         -1.12400        2.71600       -9.24100
C         -0.21400        1.76000       -8.93000
C         -0.20300        1.27300       -7.51000
C          0.89000        0.26600       -7.24900
C          0.74200       -0.34500       -5.87500
C          1.18200        0.59200       -4.78200
C          0.71700        0.12100       -3.42200
C          1.47500        0.77800       -2.29500
C          1.14800        2.24100       -2.16200
C          0.38600        2.60900       -0.89600
O         -0.00100        1.71700       -0.12400
O          0.15300        3.80200       -0.66900
