51
5bvs_EIC_model_39_chainB_pH74.pdb
C         -0.39700       -3.53100        3.04200
C         -0.11100       -4.97500        3.42100
C         -0.92300       -5.45100        4.60300
C         -2.12900       -6.22200        4.15600
C         -3.15800       -5.27300        3.62800
C         -4.18600       -5.98700        2.84000
C         -5.08500       -5.24000        2.11700
C         -4.90100       -3.76300        2.08100
C         -5.88400       -3.10900        1.17100
C         -5.48900       -2.01900        0.48100
C         -4.04600       -1.63600        0.57200
C         -3.71900       -0.45600       -0.30300
C         -2.22900       -0.25700       -0.40700
C         -1.63400        0.27200        0.86400
C         -0.13700        0.39600        0.75900
C          0.45000        1.17700        1.90800
C          0.32000        0.43500        3.20800
C          1.64000        0.10000        3.87700
O          1.66100       -0.13500        5.07400
O          2.68000        0.04400        3.18300
H          0.20700       -3.25600        2.20200
H         -0.16800       -2.89300        3.87000
H         -1.43100       -3.42700        2.78700
H          0.92700       -5.06400        3.66400
H         -0.38100       -5.58400        2.58300
H         -1.24200       -4.60300        5.17200
H         -0.31000       -6.09500        5.19800
H         -1.84800       -6.90900        3.38500
H         -2.53400       -6.76400        4.98500
H         -3.63000       -4.77700        4.45000
H         -2.67200       -4.56500        2.99000
H         -4.22700       -7.01800        2.83300
H         -5.86500       -5.69000        1.61300
H         -5.03000       -3.37300        3.06900
H         -3.91700       -3.55700        1.71400
H         -6.84200       -3.48000        1.07100
H         -6.15500       -1.47200       -0.08600
H         -3.81800       -1.38700        1.58700
H         -3.46200       -2.46800        0.23700
H         -4.11900       -0.62400       -1.28100
H         -4.15000        0.42100        0.13200
H         -2.02900        0.43800       -1.19600
H         -1.78500       -1.21000       -0.60400
H         -1.87300       -0.39600        1.66500
H         -2.04100        1.24500        1.04700
H          0.10400        0.89500       -0.15600
H          0.27800       -0.59000        0.78500
H         -0.06300        2.11200        1.99000
H          1.49100        1.32700        1.71200
H         -0.20100       -0.48100        3.01900
H         -0.20400        1.08500        3.87800
