20
5bvs_EIC_model_39_chainB.pdb
C         -0.39700       -3.53100        3.04200
C         -0.11100       -4.97500        3.42100
C         -0.92300       -5.45100        4.60300
C         -2.12900       -6.22200        4.15600
C         -3.15800       -5.27300        3.62800
C         -4.18600       -5.98700        2.84000
C         -5.08500       -5.24000        2.11700
C         -4.90100       -3.76300        2.08100
C         -5.88400       -3.10900        1.17100
C         -5.48900       -2.01900        0.48100
C         -4.04600       -1.63600        0.57200
C         -3.71900       -0.45600       -0.30300
C         -2.22900       -0.25700       -0.40700
C         -1.63400        0.27200        0.86400
C         -0.13700        0.39600        0.75900
C          0.45000        1.17700        1.90800
C          0.32000        0.43500        3.20800
C          1.64000        0.10000        3.87700
O          1.66100       -0.13500        5.07400
O          2.68000        0.04400        3.18300
