20
5bvs_EIC_model_18_chainB.pdb
C          3.70700        0.24800        5.13300
C          3.18600        0.12000        6.54600
C          4.16100        0.64900        7.57300
C          3.50800        1.68300        8.43700
C          3.20400        2.90500        7.60800
C          2.17700        3.74400        8.27300
C          1.55300        4.72600        7.54000
C          1.84700        4.83400        6.08300
C          1.01200        5.88100        5.42400
C          0.53900        5.64000        4.18200
C          0.65400        4.23500        3.68000
C          0.47900        4.15800        2.18900
C          0.41800        2.72100        1.75200
C          1.74900        2.22600        1.29600
C          1.73900        0.72500        1.11200
C          2.93600        0.25400        0.33200
C          4.20600        0.40000        1.11800
C          4.82300       -0.91500        1.55600
O          4.23300       -1.98300        1.32600
O          5.90700       -0.88900        2.15600
