51
5bvs_EIC_model_37_chainB_pH74.pdb
C         -3.96300       -3.45000        0.73200
C         -5.21000       -3.24700        1.56100
C         -6.06800       -4.49100        1.61800
C         -6.24100       -4.95000        3.03200
C         -4.91800       -5.40700        3.58000
C         -4.99800       -5.64400        5.03700
C         -3.84300       -5.93800        5.70800
C         -2.57100       -5.93300        4.93700
C         -1.38800       -6.12600        5.81900
C         -0.24200       -5.50000        5.49700
C         -0.30800       -4.48500        4.40900
C          1.04900       -3.92200        4.10100
C          0.94000       -2.76700        3.14700
C          0.85000       -3.22600        1.73200
C          0.67600       -2.05800        0.80300
C          0.80400       -2.47100       -0.63400
C         -0.36700       -3.28900       -1.07400
C         -1.17800       -2.65100       -2.18200
O         -1.11000       -1.42900       -2.37600
O         -1.91200       -3.37800       -2.86300
H         -3.39100       -2.54600        0.72100
H         -4.23800       -3.70900       -0.26900
H         -3.37700       -4.23800        1.15600
H         -5.78400       -2.45200        1.13100
H         -4.90600       -3.01200        2.56000
H         -5.59800       -5.26800        1.05200
H         -7.03100       -4.26400        1.21000
H         -6.93700       -5.76200        3.06000
H         -6.61000       -4.14000        3.62600
H         -4.18200       -4.65500        3.38800
H         -4.65100       -6.32600        3.10100
H         -5.90100       -5.58900        5.53400
H         -3.85400       -6.15600        6.71700
H         -2.47600       -4.99500        4.43100
H         -2.60200       -6.74500        4.24000
H         -1.44600       -6.72500        6.65700
H          0.64400       -5.71300        5.98200
H         -0.70200       -4.94500        3.52700
H         -0.93900       -3.68400        4.73400
H          1.50400       -3.58600        5.00900
H          1.64500       -4.68700        3.64900
H          0.06300       -2.20300        3.38500
H          1.82100       -2.16800        3.24700
H          1.74800       -3.74800        1.47500
H          0.00300       -3.87200        1.63400
H         -0.29400       -1.63300        0.95700
H          1.44400       -1.34400        1.01600
H          0.86500       -1.59400       -1.24400
H          1.68700       -3.06600       -0.73500
H         -0.00600       -4.23400       -1.42200
H         -1.01600       -3.38300       -0.22800
