51
5bvs_EIC_model_29_chainB_pH74.pdb
C          3.23000        2.50100       -3.01200
C          3.63600        3.19500       -4.28100
C          4.74800        4.19900       -4.06800
C          5.42200        4.48400       -5.37600
C          6.06300        3.22500       -5.90300
C          5.95300        3.13700       -7.37900
C          5.90600        1.89000       -7.97900
C          5.76400        0.68100       -7.11600
C          5.73100       -0.58400       -7.91300
C          5.03200       -1.64000       -7.42600
C          4.15700       -1.39400       -6.23700
C          3.59000       -2.66300       -5.66100
C          2.53200       -2.37400       -4.62900
C          3.10500       -1.99600       -3.30100
C          2.02900       -1.65400       -2.30200
C          2.54700       -1.54700       -0.88800
C          3.56900       -0.45300       -0.74100
C          3.25600        0.56300        0.34800
O          2.08400        0.73900        0.70300
O          4.18400        1.21000        0.84000
H          2.44400        1.80600       -3.22100
H          2.88600        3.22500       -2.30400
H          4.07100        1.97800       -2.60700
H          3.96900        2.45900       -4.98200
H          2.78300        3.73000       -4.64400
H          4.33900        5.10500       -3.67300
H          5.46200        3.79900       -3.37900
H          4.69700        4.83600       -6.08000
H          6.17500        5.23100       -5.23100
H          7.09800        3.22100       -5.63000
H          5.55400        2.38500       -5.47700
H          5.91200        3.99400       -7.95200
H          5.96800        1.79800       -9.00500
H          4.85400        0.76100       -6.55900
H          6.61500        0.63800       -6.46900
H          6.22900       -0.65200       -8.81400
H          5.10100       -2.57500       -7.85800
H          3.34700       -0.76100       -6.53300
H          4.76000       -0.93700       -5.48100
H          4.38000       -3.22100       -5.20300
H          3.14100       -3.22200       -6.45500
H          1.92800       -3.24900       -4.50400
H          1.95800       -1.54200       -4.98100
H          3.74200       -1.14600       -3.42800
H          3.65300       -2.83500       -2.92500
H          1.28000       -2.41700       -2.33400
H          1.63600       -0.69600       -2.57100
H          2.99700       -2.47800       -0.61400
H          1.72000       -1.31300       -0.25100
H          3.63800        0.06700       -1.67300
H          4.48500       -0.92900       -0.45800
