20
5bvs_EIC_model_28_chainB.pdb
C          1.94500       -3.60900        5.65200
C          3.02000       -3.46500        6.67900
C          3.21400       -4.73300        7.46800
C          4.66800       -4.96600        7.70000
C          5.34200       -5.17600        6.37800
C          6.80400       -5.16300        6.53400
C          7.56700       -5.22400        5.40900
C          6.86700       -5.25700        4.10300
C          7.81300       -5.07300        2.97700
C          7.45000       -4.27300        1.96900
C          6.22800       -3.45100        2.16800
C          5.86600       -2.71100        0.92300
C          4.79200       -1.70400        1.20400
C          3.45500       -2.34300        1.30500
C          2.40300       -1.32800        1.63700
C          1.03300       -1.82500        1.30400
C          0.61600       -2.93600        2.20900
C         -0.46000       -2.56300        3.20500
O         -0.75700       -1.37300        3.37800
O         -1.01700       -3.46300        3.83900
