51
5bvs_EIC_model_32_chainB_pH74.pdb
C         -6.39800       -2.86500        1.00100
C         -7.49000       -3.37900        1.92700
C         -8.78800       -2.66900        1.69000
C         -9.76900       -2.87700        2.79400
C         -9.14400       -2.60000        4.13700
C         -9.48600       -1.24300        4.67000
C         -8.56900       -0.55500        5.46100
C         -7.14700       -1.02100        5.52800
C         -6.33500       -0.25700        6.53200
C         -4.99800       -0.08000        6.31900
C         -4.41900       -0.52900        5.00500
C         -2.92500       -0.31000        4.91100
C         -2.41200       -0.47900        3.49800
C         -2.29800       -1.92100        3.07400
C         -1.97200       -2.06600        1.59900
C         -1.60100       -3.48000        1.20400
C         -2.75200       -4.44100        1.34700
C         -3.13200       -5.18500        0.07200
O         -2.77200       -4.74100       -1.03100
O         -3.81600       -6.21000        0.16200
H         -5.48700       -3.39200        1.19600
H         -6.24900       -1.81900        1.17200
H         -6.69000       -3.02200       -0.01600
H         -7.18800       -3.22300        2.94200
H         -7.63500       -4.42100        1.73000
H         -9.21600       -3.03300        0.77900
H         -8.57800       -1.62100        1.63800
H        -10.11100       -3.89100        2.77100
H        -10.58600       -2.20000        2.65400
H         -8.08100       -2.67100        4.04000
H         -9.53000       -3.32200        4.82600
H        -10.40100       -0.81800        4.45100
H         -8.86800        0.27300        5.99900
H         -6.70100       -0.90000        4.56300
H         -7.15700       -2.04700        5.83300
H         -6.78300        0.13100        7.37600
H         -4.40000        0.35100        7.04100
H         -4.61900       -1.57300        4.88300
H         -4.87700        0.05800        4.23600
H         -2.70000        0.68200        5.24300
H         -2.44600       -1.04300        5.52500
H         -3.08400        0.01900        2.83100
H         -1.42800       -0.06000        3.46600
H         -1.52200       -2.38700        3.64500
H         -3.24500       -2.38800        3.24600
H         -2.82900       -1.76800        1.03100
H         -1.12200       -1.44800        1.40000
H         -1.28100       -3.47800        0.18300
H         -0.82200       -3.80700        1.86100
H         -2.48900       -5.16600        2.08900
H         -3.60300       -3.85000        1.61400
