51
5bvs_EIC_model_36_chainB_pH74.pdb
C         -3.29600        4.24300        2.59000
C         -3.42300        4.87800        3.97000
C         -4.85000        5.11400        4.36300
C         -5.42600        6.43000        3.96200
C         -4.41800        7.38100        3.42200
C         -5.05500        8.54100        2.74300
C         -4.33000        9.24000        1.81000
C         -3.00200        8.69900        1.39600
C         -2.24800        9.64300        0.51300
C         -1.28700        9.13500       -0.28900
C         -1.15300        7.64200       -0.34800
C          0.03000        7.19500       -1.16700
C          0.06300        5.69200       -1.32700
C          0.50700        4.98900       -0.07800
C          0.43900        3.48200       -0.21600
C          1.19900        2.75400        0.86700
C          0.68100        3.06800        2.24600
C          0.22900        1.85200        3.04600
O         -0.11100        0.81600        2.44600
O          0.19500        1.92900        4.27900
H         -2.26200        4.09600        2.35900
H         -3.73700        4.88800        1.85900
H         -3.80000        3.29900        2.58400
H         -2.90900        5.81600        3.96500
H         -2.99700        4.20100        4.68100
H         -5.44500        4.34500        3.91500
H         -4.86100        5.10700        5.43300
H         -6.16800        6.26000        3.21000
H         -5.83600        6.87500        4.84400
H         -3.81600        7.74100        4.22900
H         -3.82500        6.86000        2.70000
H         -6.02400        8.81500        2.96900
H         -4.69400       10.11700        1.40500
H         -2.42000        8.51100        2.27400
H         -3.17600        7.80200        0.83900
H         -2.45600       10.65400        0.51700
H         -0.66900        9.75100       -0.84000
H         -1.04000        7.26900        0.64800
H         -2.03400        7.25700       -0.81700
H         -0.02900        7.64600       -2.13600
H          0.92100        7.49600       -0.65800
H          0.74000        5.44600       -2.11800
H         -0.93300        5.36700       -1.54500
H         -0.12600        5.29000        0.73100
H          1.52700        5.25700        0.10600
H          0.85100        3.20800       -1.16500
H         -0.58900        3.19900       -0.13000
H          2.22900        3.03900        0.81400
H          1.07200        1.70400        0.70300
H         -0.15300        3.73100        2.14600
H          1.49800        3.50000        2.78600
