51
5bvs_EIC_model_44_chainB_pH74.pdb
C          4.07600       -0.94700       -4.12600
C          5.09600       -1.23000       -5.20900
C          4.51900       -2.04500       -6.35200
C          5.19400       -1.69000       -7.64600
C          4.69300       -0.35000       -8.13500
C          5.82200        0.53900       -8.51100
C          5.68500        1.91200       -8.36500
C          4.46600        2.43600       -7.68100
C          4.47400        3.92800       -7.59200
C          3.93300        4.50000       -6.49500
C          3.57400        3.58400       -5.36300
C          2.78500        4.28900       -4.29000
C          2.56500        3.38200       -3.10400
C          1.44700        2.40700       -3.33600
C          1.37800        1.38300       -2.22300
C          0.06800        0.63300       -2.21500
C         -0.07100       -0.26500       -3.41300
C         -0.11800       -1.74800       -3.09300
O         -0.50800       -2.52500       -3.94900
O          0.26100       -2.14800       -1.96800
H          4.53300       -0.37200       -3.34800
H          3.71700       -1.87100       -3.72300
H          3.25700       -0.39800       -4.54200
H          5.45200       -0.29900       -5.59700
H          5.88700       -1.80100       -4.76900
H          4.66700       -3.08600       -6.15200
H          3.47400       -1.83000       -6.43700
H          6.25200       -1.63900       -7.49200
H          4.97100       -2.43900       -8.37700
H          4.06800       -0.50200       -8.99000
H          4.14300        0.11600       -7.34400
H          6.70000        0.13900       -8.87700
H          6.40900        2.55600       -8.72100
H          4.42300        2.03100       -6.69200
H          3.61200        2.14300       -8.25500
H          4.88100        4.50300       -8.34600
H          3.77400        5.51800       -6.43800
H          4.47500        3.19900       -4.93200
H          2.96400        2.79800       -5.75700
H          1.83600        4.58300       -4.68800
H          3.33500        5.14800       -3.96800
H          2.32700        3.98200       -2.25100
H          3.46300        2.82100       -2.94800
H          1.61000        1.90300       -4.26500
H          0.52400        2.94700       -3.35900
H          1.49200        1.88600       -1.28500
H          2.16100        0.67200       -2.38300
H          0.01600        0.03700       -1.32800
H         -0.72500        1.35100       -2.24400
H         -0.97600       -0.00500       -3.92100
H          0.80500       -0.11200       -4.00800
