20
5bvs_EIC_model_23_chainB.pdb
C          2.45900        0.21500        5.67400
C          2.84200       -0.63000        6.86700
C          3.51700        0.18000        7.95700
C          2.88200       -0.10600        9.28600
C          1.49000        0.47400        9.31200
C          0.58200       -0.36700       10.13900
C         -0.78200       -0.29400        9.91900
C         -1.27500        0.41600        8.69300
C         -2.74900        0.65600        8.75000
C         -3.43500        0.74100        7.57500
C         -2.82100        0.12400        6.36100
C         -2.84100        1.05400        5.18600
C         -1.96100        0.49800        4.11500
C         -1.42600        1.56000        3.24200
C         -0.15900        1.08800        2.58000
C          0.44200        2.15400        1.70800
C          1.37200        3.03100        2.47400
C          2.84300        2.66800        2.34100
O          3.66400        3.22900        3.05000
O          3.18300        1.79600        1.50800
