20
5bvs_EIC_model_47_chainB.pdb
C          5.62100        4.97000        3.75500
C          5.98800        5.62500        5.05200
C          7.14500        6.57900        4.90800
C          6.97700        7.72000        5.86000
C          5.68900        8.41300        5.53400
C          5.39100        9.49000        6.49900
C          4.16200       10.08000        6.40100
C          3.19400        9.40600        5.49100
C          1.96500       10.21100        5.27800
C          0.88000        9.54000        4.84600
C          0.92400        8.05300        4.95200
C          0.23800        7.38800        3.81800
C          0.34500        5.91100        3.97300
C          0.77200        5.27300        2.72300
C          1.11100        3.83000        2.95600
C          1.55700        3.15400        1.69700
C          2.86600        3.69500        1.22600
C          4.00700        2.69800        1.25900
O          5.05100        2.97700        0.69800
O          3.85400        1.62000        1.87400
