51
5bvs_EIC_model_15_chainB_pH74.pdb
C          2.18100        5.79400       -1.89900
C          3.01100        6.73100       -2.76500
C          2.18500        7.37500       -3.86300
C          2.41400        8.86000       -3.89700
C          1.56200        9.53300       -2.84800
C          2.37600       10.48600       -2.04200
C          1.98200       10.80100       -0.74800
C          0.89200       10.00100       -0.11300
C          0.48100       10.56600        1.21000
C          0.13400        9.69900        2.19300
C          0.52000        8.26900        1.98200
C         -0.32500        7.32500        2.78300
C          0.12900        5.91300        2.54100
C         -0.76900        5.21400        1.57900
C         -0.12800        3.96100        1.03000
C         -1.16000        3.01000        0.47300
C         -1.66000        3.45000       -0.86900
C         -1.06000        2.70300       -2.05500
O         -1.35100        3.05100       -3.18800
O         -0.27100        1.75300       -1.84100
H          2.80200        5.36400       -1.14100
H          1.77100        5.01500       -2.50800
H          1.38600        6.34300       -1.43900
H          3.42100        7.50100       -2.14500
H          3.78300        6.15400       -3.22900
H          2.46500        6.95500       -4.80600
H          1.14900        7.19100       -3.66800
H          2.15200        9.23800       -4.86300
H          3.44600        9.06300       -3.69800
H          1.14900        8.78800       -2.20000
H          0.77900       10.07500       -3.33600
H          3.22700       10.90900       -2.44300
H          2.43400       11.57400       -0.23500
H          1.23800        8.99900        0.03200
H          0.04200       10.02600       -0.76200
H          0.46200       11.58500        1.37000
H         -0.36800       10.00800        3.04000
H          1.54300        8.14300        2.27000
H          0.37300        8.04100        0.94700
H         -1.34900        7.42500        2.48800
H         -0.22800        7.55600        3.82300
H          1.12200        5.92900        2.14200
H          0.10400        5.38500        3.47200
H         -1.67600        4.94900        2.08100
H         -0.96400        5.87600        0.76100
H          0.55200        4.23200        0.25000
H          0.38500        3.46900        1.82900
H         -0.72000        2.04000        0.37700
H         -1.99100        2.99200        1.14600
H         -2.72100        3.31000       -0.89100
H         -1.36500        4.47300       -0.97800
