20
5bvs_EIC_model_46_chainB.pdb
C          2.76300       -4.18100       -4.88100
C          3.61800       -3.85200       -6.09200
C          3.76500       -5.04600       -7.00200
C          4.54800       -4.73100       -8.24300
C          5.98100       -4.38900       -7.92400
C          6.74300       -5.60700       -7.52100
C          7.48800       -5.65400       -6.36000
C          7.53600       -4.51400       -5.38100
C          8.49800       -4.81600       -4.27500
C          8.52400       -4.05000       -3.14000
C          7.69100       -2.80200       -3.02200
C          7.00000       -2.64700       -1.68500
C          5.50300       -2.49100       -1.83600
C          5.04400       -1.07900       -2.13800
C          3.69600       -1.06800       -2.83800
C          3.22000        0.32900       -3.21000
C          3.48700        0.68100       -4.65500
C          2.31600        0.54500       -5.62900
O          2.50300        0.73700       -6.82300
O          1.18200        0.22800       -5.19700
