20
5bvs_EIC_model_20_chainB.pdb
C         -5.28800       -1.01600       -6.49700
C         -6.60900       -0.87200       -7.24500
C         -6.56900        0.23000       -8.29600
C         -6.24200       -0.32200       -9.65800
C         -4.78100       -0.65600       -9.74400
C         -4.54800       -1.72900      -10.74600
C         -3.27200       -2.21400      -10.92100
C         -2.18600       -1.67900      -10.05600
C         -0.87800       -2.34300      -10.35000
C          0.00600       -2.49200       -9.33900
C         -0.47700       -2.16500       -7.96000
C          0.63500       -2.21300       -6.94500
C          0.08400       -2.03100       -5.55000
C         -0.14400       -0.58200       -5.22200
C         -0.95800       -0.43000       -3.95400
C         -0.80600        0.94700       -3.35300
C         -1.58900        1.98200       -4.10900
C         -2.83400        2.47900       -3.38800
O         -3.19100        1.94800       -2.32200
O         -3.48000        3.40900       -3.89100
