51
5bvs_EIC_model_9_chainB_pH74.pdb
C          0.48600        2.50500        4.34400
C          0.18200        2.29600        5.80200
C          1.04600        3.16900        6.68100
C          0.52200        3.16400        8.07900
C         -0.87800        3.72100        8.10000
C         -1.69300        3.11500        9.18400
C         -3.05400        2.94300        9.00000
C         -3.63400        3.13200        7.63700
C         -5.12000        2.93700        7.62800
C         -5.70400        2.38300        6.54200
C         -4.80500        1.80200        5.49100
C         -5.56200        1.35900        4.26500
C         -4.68700        0.54800        3.34400
C         -3.83700        1.40600        2.45900
C         -2.83700        0.59100        1.67200
C         -2.17500        1.37400        0.56800
C         -1.34400        2.51000        1.09100
C          0.13300        2.44200        0.73000
O          0.62100        1.37600        0.32700
O          0.82400        3.46100        0.87000
H         -0.14300        1.87200        3.75400
H          1.51100        2.26400        4.15500
H          0.30600        3.52800        4.08500
H          0.35900        1.27000        6.05000
H         -0.84100        2.55900        5.97200
H          1.03800        4.17000        6.30300
H          2.04600        2.78800        6.68000
H          1.15400        3.76700        8.69800
H          0.50900        2.16000        8.44800
H         -1.34600        3.51900        7.15900
H         -0.81600        4.77400        8.27800
H         -1.24700        2.82400       10.06800
H         -3.66000        2.68700        9.79500
H         -3.41400        4.12400        7.30200
H         -3.20000        2.40000        6.98800
H         -5.69000        3.22200        8.44000
H         -6.73100        2.36100        6.44000
H         -4.08900        2.54400        5.20300
H         -4.33000        0.93900        5.91000
H         -6.39700        0.76200        4.56800
H         -5.89100        2.23000        3.73800
H         -4.04800       -0.07300        3.93600
H         -5.32800       -0.03400        2.71500
H         -4.47000        1.93000        1.77400
H         -3.29300        2.08600        3.08100
H         -2.08000        0.24100        2.34200
H         -3.37200       -0.21500        1.21500
H         -1.54300        0.71500        0.01000
H         -2.94700        1.79000       -0.04500
H         -1.42500        2.51800        2.15800
H         -1.72500        3.39800        0.63100
