20
5bvs_EIC_model_0_chainB.pdb
C          2.33900       -6.93600        2.19700
C          2.28900       -8.17900        3.07300
C          0.90500       -8.81000        3.13600
C          0.76700       -9.95800        2.16900
C          0.40300       -9.45400        0.79700
C          0.91700      -10.38900       -0.24200
C          0.69600      -10.10900       -1.56400
C         -0.00400       -8.84900       -1.92300
C         -0.22700       -8.75800       -3.39700
C         -0.37500       -7.54300       -3.95400
C         -0.10900       -6.35400       -3.08100
C         -0.50500       -5.06500       -3.75200
C         -0.07300       -3.87100       -2.93400
C         -1.01000       -3.60700       -1.78900
C         -0.53000       -2.45200       -0.93600
C         -1.58300       -1.99800        0.05400
C         -1.93200       -3.09100        1.03300
C         -1.87200       -2.66800        2.49500
O         -2.59400       -3.22600        3.30500
O         -1.06800       -1.76700        2.83500
