51
5bvs_EIC_model_8_chainB_pH74.pdb
C         -3.09400        2.60900        2.38300
C         -4.07800        3.10700        3.41300
C         -4.55600        4.51900        3.12900
C         -5.67800        4.91700        4.04000
C         -6.87200        4.01100        3.86600
C         -7.30100        3.39800        5.14900
C         -7.78900        2.09600        5.19000
C         -7.67300        1.21600        3.99000
C         -8.34200       -0.11200        4.18800
C         -7.82000       -1.21000        3.60000
C         -6.46500       -1.09400        2.96600
C         -6.18500       -2.20700        1.99400
C         -4.79400       -2.19200        1.42800
C         -4.45600       -0.94600        0.66000
C         -3.51700       -1.22400       -0.48300
C         -2.62900       -0.05200       -0.84400
C         -3.36500        1.17100       -1.32100
C         -2.46500        2.37000       -1.61500
O         -1.24000        2.25600       -1.49500
O         -2.98700        3.43200       -1.96700
H         -2.79100        1.61300        2.63100
H         -2.23700        3.24900        2.37000
H         -3.55600        2.61100        1.41800
H         -3.60600        3.09200        4.37300
H         -4.93200        2.46300        3.38300
H         -4.89600        4.57300        2.11600
H         -3.73800        5.18800        3.29500
H         -5.96800        5.92300        3.81700
H         -5.33700        4.83700        5.05100
H         -6.61600        3.23100        3.18000
H         -7.68300        4.60300        3.49700
H         -7.23600        3.94500        6.02200
H         -8.23200        1.73800        6.05100
H         -8.12800        1.70900        3.15700
H         -6.63300        1.03500        3.81800
H         -9.19300       -0.18600        4.76800
H         -8.33800       -2.10300        3.58700
H         -6.40900       -0.16100        2.44500
H         -5.73500       -1.15400        3.74600
H         -6.33200       -3.13900        2.49900
H         -6.85500       -2.07300        1.17000
H         -4.10100       -2.28600        2.23800
H         -4.73400       -3.00600        0.73600
H         -5.35900       -0.52500        0.27000
H         -3.96900       -0.26800        1.32900
H         -2.89200       -2.05000       -0.21300
H         -4.12300       -1.43100       -1.34000
H         -2.06300        0.21700        0.02300
H         -2.01900       -0.37600       -1.66100
H         -3.89000        0.91800       -2.21800
H         -4.01900        1.46500       -0.52700
