20
5bvs_EIC_model_5_chainB.pdb
C         -3.49200        0.33100       -2.37700
C         -4.58200        1.19900       -2.95400
C         -5.95400        0.56400       -2.86500
C         -7.03800        1.57900       -3.06200
C         -6.99400        2.62400       -1.97900
C         -6.77400        3.97800       -2.54300
C         -6.08000        4.93700       -1.82100
C         -5.35200        4.55700       -0.58100
C         -4.78200        5.74400        0.12400
C         -3.60100        5.62100        0.76200
C         -2.82300        4.36200        0.54000
C         -1.66100        4.21600        1.49000
C         -0.80000        3.02400        1.15100
C         -1.45500        1.71100        1.47600
C         -0.60600        0.53600        1.06900
C         -1.15300       -0.80000        1.53100
C         -2.55900       -1.04800        1.05100
C         -2.82100       -2.46300        0.54300
O         -1.89800       -3.11700        0.04300
O         -3.96500       -2.92000        0.61900
