51
5bvs_EIC_model_49_chainB_pH74.pdb
C         -1.98400       -1.09800       -5.22800
C         -2.36800       -0.71900       -6.64700
C         -2.78600        0.73600       -6.75500
C         -3.32800        1.06900       -8.12100
C         -2.23000        1.21700       -9.15000
C         -2.30700        0.15200      -10.18600
C         -1.15200       -0.47000      -10.65500
C          0.15900       -0.16700      -10.01200
C          1.28400       -0.96300      -10.59000
C          2.20800       -1.48500       -9.74000
C          1.90100       -1.39000       -8.27300
C          2.99000       -1.94000       -7.38900
C          2.50800       -2.10300       -5.96600
C          2.31100       -0.78700       -5.25900
C          1.54900       -0.94500       -3.96100
C          1.58800        0.29700       -3.10100
C          0.80900        1.43500       -3.69800
C         -0.39300        1.89300       -2.88100
O         -0.78700        1.21300       -1.92000
O         -0.97000        2.93400       -3.20900
H         -1.69700       -2.12800       -5.19900
H         -2.82000       -0.94200       -4.57900
H         -1.16400       -0.49100       -4.90600
H         -1.52800       -0.88500       -7.28800
H         -3.20200       -1.32400       -6.93600
H         -3.54400        0.93300       -6.02600
H         -1.92000        1.34100       -6.58700
H         -3.98700        0.28500       -8.43100
H         -3.84200        2.00500       -8.05200
H         -2.32500        2.17100       -9.62500
H         -1.28800        1.13200       -8.65000
H         -3.22600       -0.12900      -10.56100
H         -1.20300       -1.13600      -11.44200
H          0.08600       -0.38600       -8.96700
H          0.37200        0.86700      -10.18600
H          1.35800       -1.11300      -11.60800
H          3.07600       -1.92400      -10.08500
H          1.00100       -1.93600       -8.08000
H          1.80500       -0.35000       -8.04000
H          3.82200       -1.26800       -7.40100
H          3.27600       -2.90100       -7.76200
H          3.23100       -2.67700       -5.42400
H          1.55700       -2.59300       -6.00300
H          1.76500       -0.12900       -5.90200
H          3.27700       -0.39000       -5.02700
H          1.97800       -1.75600       -3.41000
H          0.52500       -1.13100       -4.21000
H          2.60700        0.60200       -2.98500
H          1.14000        0.05500       -2.16000
H          0.45800        1.12800       -4.66100
H          1.47900        2.26800       -3.73600
