51
5bvs_EIC_model_19_chainB_pH74.pdb
C         -0.48200       -4.24400       -2.11500
C         -0.28800       -5.75000       -2.15700
C          1.17300       -6.15400       -2.01500
C          1.41100       -7.61200       -2.34500
C          0.89100       -8.55100       -1.27100
C         -0.27900       -9.35500       -1.74700
C         -1.42400       -9.47500       -0.94600
C         -1.56000       -8.61100        0.27500
C         -2.73400       -8.96600        1.14700
C         -3.32600       -7.95300        1.86200
C         -2.96700       -6.54000        1.46100
C         -3.32500       -5.48100        2.49300
C         -3.00900       -4.07300        1.99700
C         -1.52200       -3.76300        1.97700
C         -1.19900       -2.45800        1.26100
C          0.20000       -1.92300        1.55400
C          1.29800       -2.87700        1.14800
C          2.38000       -2.28900        0.23900
O          2.13700       -1.27500       -0.44200
O          3.48000       -2.85900        0.18000
H         -1.52200       -4.01500       -2.21900
H          0.06400       -3.79200       -2.91600
H         -0.12500       -3.86400       -1.18100
H         -0.65600       -6.11700       -3.09200
H         -0.82300       -6.17000       -1.33100
H          1.76000       -5.55300       -2.67700
H          1.45200       -6.00400       -0.99300
H          2.46300       -7.77000       -2.45700
H          0.87900       -7.82900       -3.24800
H          0.59000       -7.97300       -0.42300
H          1.67800       -9.23100       -1.01700
H         -0.24300       -9.82200       -2.66700
H         -2.16500      -10.15000       -1.19300
H         -1.67100       -7.59500       -0.04200
H         -0.67900       -8.76400        0.86300
H         -3.08200       -9.93600        1.20600
H         -3.98300       -8.14700        2.63400
H         -3.48300       -6.30900        0.55200
H         -1.90200       -6.51500        1.35600
H         -2.76700       -5.66600        3.38700
H         -4.37800       -5.53900        2.67600
H         -3.39100       -3.96900        1.00300
H         -3.46700       -3.38700        2.67800
H         -1.17400       -3.69400        2.98600
H         -1.03600       -4.55200        1.44200
H         -1.28300       -2.62200        0.20700
H         -1.89300       -1.72700        1.61900
H          0.33200       -1.00500        1.02000
H          0.27300       -1.78600        2.61300
H          1.77300       -3.23100        2.03900
H          0.82200       -3.64700        0.57700
