51
5bvs_EIC_model_20_chainB_pH74.pdb
C         -5.28800       -1.01600       -6.49700
C         -6.60900       -0.87200       -7.24500
C         -6.56900        0.23000       -8.29600
C         -6.24200       -0.32200       -9.65800
C         -4.78100       -0.65600       -9.74400
C         -4.54800       -1.72900      -10.74600
C         -3.27200       -2.21400      -10.92100
C         -2.18600       -1.67900      -10.05600
C         -0.87800       -2.34300      -10.35000
C          0.00600       -2.49200       -9.33900
C         -0.47700       -2.16500       -7.96000
C          0.63500       -2.21300       -6.94500
C          0.08400       -2.03100       -5.55000
C         -0.14400       -0.58200       -5.22200
C         -0.95800       -0.43000       -3.95400
C         -0.80600        0.94700       -3.35300
C         -1.58900        1.98200       -4.10900
C         -2.83400        2.47900       -3.38800
O         -3.19100        1.94800       -2.32200
O         -3.48000        3.40900       -3.89100
H         -5.37100       -1.80000       -5.77400
H         -5.05700       -0.09700       -6.00100
H         -4.50900       -1.25200       -7.19100
H         -6.83200       -1.80000       -7.72900
H         -7.36000       -0.61100       -6.52900
H         -7.52500        0.70900       -8.33500
H         -5.80500        0.92800       -8.02300
H         -6.81800       -1.20800       -9.82800
H         -6.47700        0.41400      -10.39900
H         -4.23700        0.21900      -10.03200
H         -4.44900       -1.00000       -8.78700
H         -5.33200       -2.10500      -11.30200
H         -3.07300       -2.93200      -11.63500
H         -2.44100       -1.85000       -9.03100
H         -2.08400       -0.63200      -10.25200
H         -0.65700       -2.67900      -11.30000
H          0.97100       -2.81700       -9.51000
H         -1.23000       -2.87200       -7.68100
H         -0.86700       -1.16900       -7.97500
H          1.33500       -1.43100       -7.15200
H          1.11900       -3.16600       -7.00500
H          0.78000       -2.43900       -4.84700
H         -0.85800       -2.53500       -5.49700
H         -0.66900       -0.11900       -6.03100
H          0.80700       -0.11400       -5.07300
H         -0.62900       -1.15700       -3.24200
H         -1.98900       -0.57400       -4.20100
H         -1.15300        0.92200       -2.34100
H          0.22900        1.21600       -3.40100
H         -0.94900        2.82100       -4.28900
H         -1.92500        1.51300       -5.01000
