51
5bvs_EIC_model_4_chainB_pH74.pdb
C          5.88500        1.07900       -2.96300
C          7.37100        1.22300       -2.65400
C          8.24100        0.65600       -3.75800
C          8.88400        1.75300       -4.56100
C          7.84300        2.44500       -5.39400
C          8.38400        3.70100       -5.96800
C          7.53500        4.51300       -6.67500
C          6.10100        4.12200       -6.78400
C          5.30900        5.14400       -7.53500
C          4.05300        5.40900       -7.11500
C          3.67500        4.88000       -5.77100
C          2.19100        4.88200       -5.57200
C          1.86100        4.37400       -4.19800
C          1.46700        2.94000       -4.23900
C          1.24400        2.40100       -2.84800
C          0.64300        1.02000       -2.88400
C          1.60800        0.01600       -3.44800
C          2.12000       -0.98800       -2.43200
O          1.86100       -0.83300       -1.22600
O          2.80300       -1.94000       -2.83400
H          5.31200        1.49100       -2.15900
H          5.64300        0.04300       -3.07800
H          5.65700        1.60100       -3.86800
H          7.59900        2.26100       -2.53400
H          7.57600        0.67400       -1.75900
H          9.00600        0.04800       -3.32200
H          7.62400        0.07500       -4.41100
H          9.33800        2.46000       -3.89800
H          9.63000        1.33300       -5.20200
H          7.54100        1.79600       -6.19000
H          7.00500        2.68300       -4.77200
H          9.37500        3.95800       -5.83800
H          7.88100        5.37600       -7.12200
H          6.03400        3.18500       -7.29700
H          5.69800        4.04600       -5.79600
H          5.71000        5.63300       -8.35100
H          3.39000        5.94900       -7.69300
H          4.12700        5.49200       -5.01800
H          4.01900        3.86900       -5.70200
H          1.73400        4.24900       -6.30400
H          1.82200        5.88100       -5.67700
H          1.05100        4.94800       -3.79800
H          2.73000        4.47100       -3.58100
H          2.24400        2.37700       -4.71200
H          0.55300        2.85300       -4.78900
H          0.58000        3.05600       -2.32300
H          2.19100        2.34400       -2.35300
H          0.38000        0.72900       -1.88900
H         -0.22200        1.04600       -3.51300
H          2.44700        0.54500       -3.85000
H          1.07600       -0.54000       -4.19100
