51
5bvs_EIC_model_14_chainB_pH74.pdb
C         -0.29500        3.23900       -6.64200
C         -0.18400        3.59700       -8.10400
C         -0.26000        5.09200       -8.33600
C          0.63200        5.50200       -9.46500
C          2.06700        5.23200       -9.11100
C          2.71400        4.39900      -10.15100
C          3.77500        3.57600       -9.81500
C          4.13400        3.39300       -8.38200
C          5.34800        2.53900       -8.22000
C          5.41800        1.70500       -7.15900
C          4.17300        1.52400       -6.35300
C          4.41300        0.73100       -5.09500
C          3.12000        0.44400       -4.38300
C          2.55500        1.67000       -3.72400
C          1.15300        1.43500       -3.21700
C          0.74500        2.46200       -2.19000
C          0.64300        3.84100       -2.77200
C         -0.75900        4.43700       -2.76500
O         -0.90200        5.63900       -2.91200
O         -1.74400        3.67800       -2.62400
H         -0.23600        2.17700       -6.52900
H         -1.23200        3.58700       -6.26000
H          0.50400        3.70000       -6.10000
H          0.75300        3.23800       -8.47600
H         -1.00700        3.14400       -8.61600
H         -1.26900        5.35900       -8.57200
H          0.06100        5.59300       -7.44700
H          0.37300        4.94600      -10.34100
H          0.50700        6.54900       -9.64900
H          2.59000        6.16200       -9.03000
H          2.09900        4.70600       -8.18000
H          2.37400        4.43200      -11.12500
H          4.31300        3.09300      -10.55200
H          3.31400        2.92900       -7.87600
H          4.34600        4.35600       -7.96600
H          6.11900        2.58500       -8.90500
H          6.29300        1.21500       -6.91600
H          3.44900        1.01000       -6.95000
H          3.82700        2.49500       -6.06500
H          5.05300        1.29100       -4.44600
H          4.86900       -0.20000       -5.36100
H          3.29600       -0.30000       -3.63500
H          2.41200        0.10400       -5.10900
H          2.53700        2.46900       -4.43500
H          3.17600        1.91500       -2.88800
H          1.10500        0.46300       -2.77200
H          0.48300        1.51300       -4.04800
H          1.47300        2.47300       -1.40600
H         -0.22200        2.19000       -1.82200
H          1.28200        4.48800       -2.20800
H          0.92800        3.75500       -3.80000
