51
5bvs_EIC_model_26_chainB_pH74.pdb
C          2.78300        0.76100       -3.88100
C          3.69800        0.44600       -5.03700
C          3.88300        1.61600       -5.97800
C          5.30000        1.66100       -6.46800
C          6.20800        2.04700       -5.32500
C          7.43300        1.21000       -5.31500
C          8.14400        1.08300       -4.13500
C          7.52600        1.60900       -2.88600
C          8.43900        1.47500       -1.71300
C          7.87600        1.29600       -0.49600
C          6.40500        1.01900       -0.47100
C          5.84700        0.97600        0.92700
C          4.40400        0.54400        0.91200
C          3.49700        1.63400        0.43200
C          2.08500        1.14000        0.25300
C          1.08700        2.26700        0.19300
C          1.26800        3.10800       -1.03700
C          0.09400        3.07500       -1.99700
O         -0.76100        2.18300       -1.89900
O          0.02600        3.94000       -2.87600
H          2.69200       -0.10100       -3.25300
H          1.81800        1.03500       -4.25400
H          3.19000        1.57300       -3.31500
H          4.65500        0.16600       -4.64800
H          3.24700       -0.34700       -5.59600
H          3.22300        1.50700       -6.81300
H          3.66200        2.52400       -5.45700
H          5.38500        2.38400       -7.25200
H          5.58200        0.69900       -6.84200
H          5.68500        1.91300       -4.40100
H          6.49500        3.07100       -5.44700
H          7.74900        0.73100       -6.17300
H          9.07500        0.63700       -4.12100
H          6.62700        1.06300       -2.68900
H          7.32200        2.65000       -3.03000
H          9.46400        1.51700       -1.82600
H          8.43300        1.34800        0.37200
H          6.22600        0.07400       -0.94000
H          5.91600        1.81700       -0.99000
H          5.91700        1.95100        1.36300
H          6.41100        0.27100        1.50100
H          4.30300       -0.30000        0.26300
H          4.12200        0.29700        1.91400
H          3.49900        2.42900        1.14900
H          3.85600        1.97500       -0.51700
H          2.02900        0.58200       -0.65800
H          1.84100        0.53300        1.10000
H          0.09900        1.85500        0.18800
H          1.24000        2.89200        1.04800
H          1.42100        4.12200       -0.73000
H          2.10500        2.70100       -1.56500
