20
5bvs_EIC_model_44_chainB.pdb
C          4.07600       -0.94700       -4.12600
C          5.09600       -1.23000       -5.20900
C          4.51900       -2.04500       -6.35200
C          5.19400       -1.69000       -7.64600
C          4.69300       -0.35000       -8.13500
C          5.82200        0.53900       -8.51100
C          5.68500        1.91200       -8.36500
C          4.46600        2.43600       -7.68100
C          4.47400        3.92800       -7.59200
C          3.93300        4.50000       -6.49500
C          3.57400        3.58400       -5.36300
C          2.78500        4.28900       -4.29000
C          2.56500        3.38200       -3.10400
C          1.44700        2.40700       -3.33600
C          1.37800        1.38300       -2.22300
C          0.06800        0.63300       -2.21500
C         -0.07100       -0.26500       -3.41300
C         -0.11800       -1.74800       -3.09300
O         -0.50800       -2.52500       -3.94900
O          0.26100       -2.14800       -1.96800
