51
5bvs_EIC_model_7_chainB_pH74.pdb
C          6.40300       -2.02200        1.83700
C          7.05700       -2.48600        3.11100
C          8.50000       -2.88900        2.92100
C          9.35800       -2.26800        3.98100
C          9.30900       -0.77200        3.83500
C          9.81100       -0.08700        5.04700
C          9.56000        1.25800        5.18000
C          8.63000        1.90500        4.20700
C          8.59200        3.38700        4.38300
C          7.47100        4.04600        4.02500
C          6.26000        3.22700        3.71800
C          5.25500        3.99000        2.90300
C          4.01200        3.18000        2.66800
C          4.07200        2.43300        1.38500
C          2.84600        1.58700        1.17700
C          2.77500        1.00400       -0.20800
C          3.97200        0.15700       -0.52200
C          3.63400       -1.24300       -1.00200
O          2.53800       -1.73900       -0.71600
O          4.47400       -1.86700       -1.65400
H          5.38700       -1.75200        2.03600
H          6.42700       -2.81200        1.11500
H          6.93000       -1.17300        1.45400
H          6.51400       -3.32900        3.48600
H          7.04200       -1.66400        3.79600
H          8.83400       -2.56100        1.95900
H          8.57600       -3.95400        2.99200
H         10.36700       -2.60700        3.87000
H          8.99800       -2.54900        4.94900
H          8.29600       -0.47300        3.66200
H          9.93500       -0.49600        3.01300
H         10.33400       -0.60400        5.77100
H         10.00300        1.80700        5.93300
H          8.95800        1.68200        3.21300
H          7.64600        1.52300        4.38100
H          9.40300        3.89500        4.76900
H          7.45100        5.07600        3.96500
H          6.56100        2.35800        3.17000
H          5.79800        2.96000        4.64600
H          4.99300        4.88700        3.42400
H          5.69400        4.21700        1.95400
H          3.89800        2.48100        3.47000
H          3.18100        3.85300        2.62100
H          4.15100        3.13300        0.57900
H          4.92300        1.78600        1.41500
H          2.85800        0.78600        1.88600
H          1.99100        2.21700        1.30800
H          1.89500        0.40000       -0.28400
H          2.75000        1.81400       -0.90700
H          4.53800        0.64600       -1.28700
H          4.51800        0.04600        0.39100
