51
5bvs_EIC_model_47_chainB_pH74.pdb
C          5.62100        4.97000        3.75500
C          5.98800        5.62500        5.05200
C          7.14500        6.57900        4.90800
C          6.97700        7.72000        5.86000
C          5.68900        8.41300        5.53400
C          5.39100        9.49000        6.49900
C          4.16200       10.08000        6.40100
C          3.19400        9.40600        5.49100
C          1.96500       10.21100        5.27800
C          0.88000        9.54000        4.84600
C          0.92400        8.05300        4.95200
C          0.23800        7.38800        3.81800
C          0.34500        5.91100        3.97300
C          0.77200        5.27300        2.72300
C          1.11100        3.83000        2.95600
C          1.55700        3.15400        1.69700
C          2.86600        3.69500        1.22600
C          4.00700        2.69800        1.25900
O          5.05100        2.97700        0.69800
O          3.85400        1.62000        1.87400
H          4.79700        4.30500        3.91200
H          6.45900        4.41800        3.38400
H          5.34400        5.71900        3.04300
H          6.25500        4.86500        5.75700
H          5.14100        6.18800        5.38400
H          7.17500        6.95300        3.90600
H          8.05800        6.06600        5.12700
H          7.79300        8.40400        5.75400
H          6.96000        7.36200        6.86800
H          4.89400        7.69700        5.55700
H          5.78200        8.85100        4.56200
H          6.07700        9.78300        7.21200
H          3.92000       10.93700        6.92300
H          3.66700        9.24400        4.54500
H          2.90500        8.48200        5.94800
H          1.94300       11.22800        5.45100
H          0.05800       10.03100        4.46000
H          1.94700        7.73900        4.96700
H          0.41600        7.77400        5.85100
H         -0.79400        7.67200        3.80900
H          0.69700        7.68500        2.89800
H          1.06000        5.69200        4.73800
H         -0.61900        5.52800        4.23500
H         -0.02000        5.33700        2.00700
H          1.64200        5.77700        2.35800
H          1.89800        3.77100        3.67800
H          0.23000        3.33400        3.30600
H          1.65900        2.10500        1.88200
H          0.82400        3.33500        0.93900
H          2.74500        4.03100        0.21700
H          3.13000        4.48200        1.90100
