51
5bvs_EIC_model_16_chainB_pH74.pdb
C          3.52800        6.22200        0.89300
C          3.46300        7.71500        1.18600
C          3.99900        8.07300        2.56200
C          5.37100        8.68600        2.47900
C          6.39400        7.61400        2.20800
C          7.45800        8.12600        1.30300
C          8.43200        7.26200        0.86700
C          8.33700        5.83300        1.26400
C          9.43900        5.03100        0.66000
C          9.20500        3.74500        0.36500
C          7.79900        3.25400        0.52100
C          7.65800        1.81700        0.09900
C          6.20800        1.42100        0.02900
C          5.60600        1.26400        1.39100
C          4.14100        0.92800        1.30200
C          3.54900        0.61600        2.65200
C          3.49900        1.83900        3.53000
C          2.11000        2.15400        4.05900
O          1.11100        1.78900        3.42100
O          2.00300        2.79000        5.11600
H          3.13800        6.03300       -0.08600
H          2.94600        5.69100        1.61700
H          4.54500        5.89300        0.94200
H          2.44200        8.03100        1.12500
H          4.07800        8.21000        0.46400
H          4.05100        7.18500        3.15700
H          3.33800        8.79000        3.00300
H          5.39100        9.40500        1.68700
H          5.60000        9.16600        3.40800
H          6.83600        7.30700        3.13300
H          5.90900        6.78400        1.73800
H          7.46400        9.11500        1.00800
H          9.21100        7.59700        0.27800
H          8.39800        5.76200        2.33000
H          7.40400        5.44500        0.91200
H         10.36100        5.45600        0.47300
H          9.96100        3.12000        0.04400
H          7.51300        3.34300        1.54800
H          7.16800        3.84800       -0.10700
H          8.10400        1.68900       -0.86500
H          8.14800        1.19800        0.82100
H          6.12800        0.49100       -0.49400
H          5.67600        2.19700       -0.48100
H          5.72200        2.18000        1.93200
H          6.10800        0.46400        1.89400
H          4.02000        0.07500        0.66700
H          3.63000        1.78100        0.90700
H          4.14800       -0.13100        3.13000
H          2.54800        0.26700        2.50700
H          3.84200        2.67800        2.96100
H          4.12000        1.64000        4.37900
