189
seed-4_sample-3_model_chainA_pH74.pdb
O         -5.85100       -9.33000        5.67800
C         -5.54100      -10.64700        6.12000
C         -4.29500      -11.20900        5.42700
O         -4.49200      -11.27100        4.01700
C         -3.04600      -10.34800        5.66700
O         -1.94200      -11.18900        5.97900
C         -2.87300       -9.61500        4.35100
C         -3.39700      -10.63400        3.35600
N         -3.84900      -10.00300        2.09200
C         -3.23400      -10.35400        0.86700
O         -2.32200      -11.19400        0.85500
N         -3.63900       -9.77000       -0.29100
C         -4.62500       -8.87100       -0.25300
N         -4.99300       -8.32100       -1.41300
C         -5.27200       -8.49300        0.97400
C         -4.85600       -9.08000        2.11100
P         -0.54700      -10.67500        6.50000
O          0.09000      -11.72200        7.33400
O         -0.76000       -9.33400        7.06500
O          0.28400      -10.52300        5.13700
C          0.87600      -11.64400        4.49600
C          1.85200      -11.23100        3.41500
O          1.16900      -10.70500        2.28500
C          2.85300      -10.16800        3.88500
O          4.15600      -10.54600        3.45100
C          2.33300       -8.92200        3.18100
C          1.77800       -9.48700        1.89000
N          0.77400       -8.64300        1.26000
C         -0.45800       -8.31600        1.77400
N         -1.22000       -7.67700        0.93400
C         -0.44600       -7.55800       -0.21300
C         -0.74800       -6.99300       -1.48200
O         -1.80700       -6.49400       -1.85000
N          0.31300       -7.05400       -2.36900
C          1.52600       -7.60600       -2.07000
N          2.44200       -7.55500       -3.04400
N          1.82100       -8.17500       -0.89900
C          0.79300       -8.12300       -0.01900
P          5.47300       -9.75900        3.92900
O          6.62500      -10.66500        3.75900
O          5.22900       -9.15600        5.25000
O          5.57700       -8.57800        2.85600
C          5.99900       -8.83200        1.52800
C          5.89300       -7.60000        0.65100
O          4.52000       -7.24800        0.46600
C          6.59800       -6.35900        1.23100
O          7.58500       -5.93200        0.30600
C          5.43600       -5.37000        1.37500
C          4.48300       -5.84100        0.29900
N          3.09200       -5.34800        0.42900
C          2.48400       -4.75600       -0.68200
O          3.05600       -4.55500       -1.73200
N          1.17200       -4.38900       -0.52700
C          0.42000       -4.55000        0.60300
O         -0.75800       -4.20900        0.59300
C          1.11500       -5.14900        1.75600
C          0.40500       -5.32900        3.05800
C          2.40300       -5.52100        1.60400
P          8.55400       -4.68600        0.59300
O          9.83600       -4.93400       -0.09100
O          8.56100       -4.38700        2.03800
O          7.77700       -3.50300       -0.16400
C          7.79000       -3.41200       -1.57500
C          7.08100       -2.16900       -2.08900
O          5.66500       -2.28800       -1.90700
C          7.52100       -0.86900       -1.39000
O          7.95300        0.04800       -2.38600
C          6.23400       -0.43000       -0.68300
C          5.15200       -1.01200       -1.56800
N          3.85600       -1.18500       -0.90700
C          3.58900       -1.82500        0.28200
N          2.31300       -1.88700        0.57900
C          1.69500       -1.24000       -0.49200
C          0.34200       -0.97500       -0.80300
N         -0.66800       -1.36300       -0.03900
N          0.05500       -0.29200       -1.93200
C          1.06200        0.08700       -2.70200
N          2.37200       -0.11600       -2.52700
C          2.62700       -0.79300       -1.40000
P          8.48100        1.52100       -2.00900
O          9.46600        1.90500       -3.02700
O          8.87400        1.57300       -0.58300
O          7.16200        2.40900       -2.20200
C          6.62500        2.63100       -3.49500
C          5.29100        3.36700       -3.43600
O          4.33000        2.59300       -2.70500
C          5.37100        4.73800       -2.75500
O          4.75400        5.70900       -3.59400
C          4.57400        4.50200       -1.46500
C          3.54800        3.49300       -1.93600
N          2.84100        2.77800       -0.83800
C          1.42600        2.74300       -0.82500
O          0.79100        3.30900       -1.71600
N          0.76900        2.09600        0.17000
C          1.47200        1.49200        1.12900
N          0.78900        0.86700        2.07900
C          2.91600        1.50600        1.15000
C          3.54500        2.15300        0.15200
P          4.62600        7.25100       -3.22200
O          4.76400        8.03400       -4.46600
O          5.53400        7.54600       -2.09400
O          3.11000        7.34600       -2.71000
C          2.02400        7.27900       -3.62600
C          0.68000        7.53000       -2.95500
O          0.31600        6.45800       -2.08200
C          0.65300        8.81300       -2.11000
O         -0.54400        9.53700       -2.35900
C          0.65300        8.24500       -0.68900
C         -0.20000        7.01600       -0.88400
N         -0.11300        6.04500        0.21000
C          1.01800        5.42800        0.70400
N          0.75800        4.57700        1.66200
C         -0.62800        4.63200        1.81600
C         -1.49800        3.92800        2.69900
O         -1.19600        3.08400        3.54000
N         -2.83300        4.28000        2.54100
C         -3.27700        5.19900        1.63200
N         -4.60300        5.42300        1.63300
N         -2.48100        5.86500        0.79300
C         -1.17200        5.53300        0.93600
H         -6.64300       -9.01200        6.13900
H         -6.37200      -11.28700        5.90800
H         -5.34300      -10.60400        7.17100
H         -4.14300      -12.18200        5.84600
H         -3.12500       -9.66600        6.48800
H         -1.84500       -9.38300        4.16600
H         -3.37700       -8.67200        4.31100
H         -2.62900      -11.32300        3.07400
H         -4.54400       -8.58600       -2.24800
H         -5.71300       -7.65000       -1.43300
H         -6.03100       -7.79400        0.98200
H         -5.30300       -8.83000        3.00700
H          0.10300      -12.23700        4.05500
H          1.41700      -12.19900        5.23400
H          2.38500      -12.12300        3.16100
H          2.93100      -10.03000        4.94300
H          3.12300       -8.22600        2.99100
H          1.61300       -8.37600        3.75400
H          2.55900       -9.58500        1.16600
H         -0.75100       -8.55400        2.73400
H          2.22100       -7.13500       -3.90600
H          3.33700       -7.93800       -2.89800
H          2.69200       -8.58800       -0.69700
H          5.38600       -9.60500        1.11300
H          7.02700       -9.12700        1.55900
H          6.37400       -7.86600       -0.26700
H          7.11400       -6.49900        2.15800
H          5.75700       -4.36500        1.19700
H          5.00500       -5.35200        2.35400
H          4.77900       -5.47600       -0.66200
H          0.73100       -3.97100       -1.30100
H         -0.60000       -4.97300        2.96800
H          0.91300       -4.77600        3.82100
H          0.39400       -6.36700        3.31800
H          2.89100       -5.95400        2.40400
H          7.30300       -4.27500       -1.97800
H          8.81200       -3.35300       -1.88600
H          7.34700       -2.10500       -3.12300
H          8.33600       -0.95600       -0.70200
H          6.16300        0.63700       -0.63800
H          6.17400       -0.76000        0.33300
H          4.95400       -0.35700       -2.39000
H          4.32700       -2.22100        0.88600
H         -0.49400       -1.86300        0.79100
H         -1.59300       -1.15200       -0.30100
H          0.80100        0.61000       -3.55300
H          6.47800        1.68600       -3.97600
H          7.31600        3.23800       -4.04200
H          5.00400        3.51000       -4.45700
H          6.36000        5.09900       -2.56500
H          4.11000        5.40200       -1.12000
H          5.16600        4.17400       -0.63600
H          2.75200        3.96600       -2.47100
H         -0.19500        0.86300        2.05600
H          1.26600        0.40700        2.80700
H          3.44500        1.03800        1.90200
H          4.57700        2.17800        0.13400
H          2.00900        6.30600       -4.07100
H          2.16900        8.04400       -4.36000
H         -0.00900        7.62000       -3.76800
H          1.45600        9.49100       -2.30800
H         -1.30900        8.96400       -2.19300
H          0.21100        8.92600        0.00800
H          1.62500        8.05300       -0.28500
H         -1.23900        7.27000       -0.91700
H          1.97000        5.61800        0.35400
H         -5.18500        4.92900        2.25400
H         -4.99100        6.08100        1.01300
H         -2.80800        6.52600        0.14100
