189
seed-8_sample-0_model_chainA_pH74.pdb
O          0.51100        1.57800       11.16300
C          1.59400        2.38500       11.61200
C          2.71800        2.46000       10.57300
O          3.18800        1.16000       10.28200
C          2.25700        3.07800        9.25300
O          2.96300        4.29900        9.03100
C          2.56800        2.03600        8.21200
C          3.48700        1.07100        8.90000
N          3.25600       -0.30400        8.41700
C          4.28600       -0.97400        7.72400
O          5.37400       -0.40500        7.53800
N          4.08300       -2.22900        7.26300
C          2.90100       -2.81300        7.47400
N          2.74500       -4.04600        6.99600
C          1.83700       -2.15300        8.17800
C          2.05900       -0.91000        8.62900
P          2.68500        5.32500        7.82200
O          3.15400        6.66200        8.23200
O          1.29100        5.15900        7.36900
O          3.67000        4.77300        6.67700
C          5.08100        4.85900        6.82200
C          5.83600        4.38800        5.59000
O          5.64800        2.98600        5.39200
C          5.40500        5.09100        4.29800
O          6.57500        5.44200        3.57000
C          4.57600        4.02800        3.60700
C          5.24100        2.73500        4.05100
N          4.35000        1.58200        4.06000
C          3.12400        1.50400        4.67600
N          2.60500        0.31400        4.62800
C          3.54700       -0.45200        3.93100
C          3.55200       -1.82700        3.58800
O          2.70900       -2.66900        3.86200
N          4.67300       -2.20600        2.87000
C          5.67800       -1.35600        2.52700
N          6.67600       -1.88600        1.81600
N          5.70300       -0.06800        2.85500
C          4.61400        0.32100        3.55700
P          6.55400        6.19500        2.14700
O          7.83700        6.90700        2.01200
O          5.29500        6.95200        2.02800
O          6.52800        4.99500        1.07900
C          7.65200        4.15500        0.91500
C          7.39400        3.00800       -0.03900
O          6.37900        2.15900        0.48000
C          6.93700        3.45000       -1.43900
O          7.83200        2.90600       -2.39500
C          5.54100        2.84900       -1.53400
C          5.62700        1.66700       -0.60700
N          4.34100        1.15600       -0.11300
C          4.06100       -0.19900       -0.28100
O          4.78600       -0.95700       -0.89400
N          2.89400       -0.64100        0.28800
C          2.00200        0.11000        0.98900
O          1.01700       -0.42900        1.48000
C          2.32600        1.54100        1.10400
C          1.40100        2.46700        1.81600
C          3.47200        1.97900        0.56000
P          7.75000        3.22100       -3.98600
O          9.12900        3.29800       -4.50400
O          6.84500        4.36900       -4.19100
O          7.05500        1.90800       -4.60300
C          7.78000        0.69900       -4.74500
C          7.01400       -0.35300       -5.53500
O          5.89700       -0.81600       -4.76500
C          6.46500        0.15300       -6.87300
O          6.65300       -0.85100       -7.86100
C          4.99800        0.41400       -6.54800
C          4.69300       -0.63800       -5.49600
N          3.65600       -0.24800       -4.54500
C          3.45800        0.98100       -3.96600
N          2.48800        1.01300       -3.09300
C          2.00900       -0.29600       -3.09700
C          0.98300       -0.93300       -2.37800
N          0.24100       -0.31400       -1.46900
N          0.74200       -2.23600       -2.62000
C          1.49300       -2.86000       -3.52700
N          2.49300       -2.37400       -4.25900
C          2.70900       -1.07600       -3.99300
P          6.12700       -0.68200       -9.38900
O          7.00100       -1.48600      -10.24800
O          5.94700        0.75100       -9.69300
O          4.68100       -1.37400       -9.34000
C          4.56000       -2.77400       -9.17500
C          3.11500       -3.21500       -8.99200
O          2.56700       -2.61400       -7.81100
C          2.19300       -2.82300      -10.15800
O          1.64500       -4.00000      -10.73800
C          1.11900       -1.97100       -9.47700
C          1.18500       -2.40900       -8.03400
N          0.67500       -1.39200       -7.08800
C         -0.34900       -1.73000       -6.17700
O         -0.82700       -2.87200       -6.18200
N         -0.81100       -0.80000       -5.30800
C         -0.28500        0.42500       -5.32100
N         -0.76500        1.30100       -4.44900
C          0.75500        0.80200       -6.24000
C          1.19800       -0.13500       -7.09100
P          0.65700       -4.00000      -12.01600
O          0.99600       -5.15300      -12.85600
O          0.66600       -2.65200      -12.62600
O         -0.77500       -4.26500      -11.34200
C         -1.07500       -5.52800      -10.76400
C         -2.49300       -5.61000      -10.23200
O         -2.66200       -4.70500       -9.13100
C         -3.56100       -5.25500      -11.27300
O         -4.68600       -6.11100      -11.13300
C         -3.91200       -3.82000      -10.89400
C         -3.76500       -3.84500       -9.38700
N         -3.48100       -2.53300       -8.81300
C         -2.51500       -1.64000       -9.19500
N         -2.48300       -0.56700       -8.45300
C         -3.49700       -0.76000       -7.51900
C         -3.94500        0.05500       -6.44200
O         -3.49700        1.14400       -6.08400
N         -5.01000       -0.50300       -5.75100
C         -5.57300       -1.70800       -6.05100
N         -6.60500       -2.08800       -5.27900
N         -5.16500       -2.49000       -7.04400
C         -4.12600       -1.95900       -7.73400
H         -0.17900        1.55400       11.84500
H          1.98500        1.96700       12.51600
H          1.22500        3.37600       11.77400
H          3.48300        3.07500       10.99900
H          1.21700        3.32800        9.23600
H          3.05100        2.48000        7.36700
H          1.68500        1.55900        7.84100
H          4.51200        1.30700        8.70200
H          3.48400       -4.48500        6.51600
H          1.89100       -4.51900        7.12300
H          0.93000       -2.62100        8.33200
H          1.31500       -0.41000        9.14100
H          5.37500        4.25400        7.65400
H          5.32400        5.89000        6.97100
H          6.86100        4.62800        5.78300
H          4.85200        5.99900        4.42200
H          4.61900        4.13700        2.54300
H          3.53600        4.07500        3.85600
H          6.03100        2.49100        3.37200
H          2.66300        2.30800        5.13000
H          6.65600       -2.84000        1.57400
H          7.43200       -1.32300        1.53400
H          6.43800        0.54000        2.61200
H          7.92000        3.75200        1.86900
H          8.43900        4.74800        0.49900
H          8.33500        2.50700       -0.13400
H          6.92500        4.50600       -1.61100
H          5.32100        2.54000       -2.53400
H          4.76400        3.53700       -1.27400
H          6.05000        0.83300       -1.12700
H          2.68100       -1.59600        0.17800
H          0.55300        1.92000        2.17100
H          1.07600        3.23300        1.14300
H          1.91100        2.91300        2.64500
H          3.71100        2.97900        0.65200
H          7.99100        0.31000       -3.77100
H          8.67700        0.92000       -5.28500
H          7.72000       -1.13100       -5.73900
H          6.94100        1.02600       -7.26800
H          4.38300        0.28300       -7.41300
H          4.81000        1.41300       -6.21400
H          4.33700       -1.51600       -5.99400
H          4.02700        1.80900       -4.20100
H          0.39600        0.63800       -1.27300
H         -0.46500       -0.80700       -0.99100
H          1.26900       -3.85500       -3.68300
H          5.12100       -3.06800       -8.31200
H          4.93300       -3.24000      -10.06300
H          3.15100       -4.28300       -8.93100
H          2.68000       -2.29700      -10.95300
H          0.15300       -2.16900       -9.89300
H          1.27900       -0.92000       -9.60200
H          0.57500       -3.27200       -7.86900
H         -1.47700        1.03400       -3.82400
H         -0.40900        2.21900       -4.42700
H          1.14600        1.75700       -6.24400
H          1.94800        0.10100       -7.75900
H         -0.39600       -5.70400       -9.95600
H         -0.97700       -6.26500      -11.53300
H         -2.62700       -6.63000       -9.93900
H         -3.23900       -5.36100      -12.28800
H         -5.02300       -6.05600      -10.22500
H         -4.91300       -3.57600      -11.18300
H         -3.29900       -3.08600      -11.37400
H         -4.68300       -4.17100       -8.94400
H         -1.87700       -1.80000       -9.99000
H         -6.90800       -1.50900       -4.54300
H         -7.05800       -2.94500       -5.45000
H         -5.57300       -3.36100       -7.25600
