189
seed-4_sample-4_model_chainA_pH74.pdb
O         -7.53800       -5.23400       -5.98200
C         -6.92700       -6.21300       -6.78800
C         -5.41400       -6.32300       -6.54500
O         -4.76600       -5.09200       -6.86400
C         -5.05400       -6.66100       -5.09600
O         -4.19000       -7.79000       -5.08800
C         -4.39600       -5.40500       -4.57800
C         -3.85700       -4.74900       -5.82600
N         -3.77800       -3.27200       -5.72100
C         -2.55600       -2.61600       -5.97800
O         -1.55100       -3.28100       -6.28200
N         -2.48700       -1.26600       -5.88900
C         -3.58500       -0.57900       -5.55500
N         -3.47200        0.74900       -5.48100
C         -4.83800       -1.22100       -5.28800
C         -4.88700       -2.55900       -5.38500
P         -3.58600       -8.49200       -3.80700
O         -3.53300       -9.94900       -4.05300
O         -4.29200       -7.99900       -2.60500
O         -2.08000       -7.92200       -3.79300
C         -1.17400       -8.25100       -4.83700
C          0.24600       -7.77300       -4.58400
O          0.31400       -6.35000       -4.64200
C          0.80800       -8.20600       -3.22700
O          2.14600       -8.66300       -3.41900
C          0.71800       -6.92800       -2.40900
C          0.88100       -5.82900       -3.44900
N          0.17900       -4.59600       -3.11700
C         -1.14700       -4.47200       -2.78300
N         -1.53900       -3.23600       -2.66500
C         -0.39600       -2.48200       -2.93100
C         -0.20100       -1.07500       -2.97700
O         -1.04000       -0.20000       -2.81400
N          1.10900       -0.72200       -3.25800
C          2.11300       -1.61400       -3.47100
N          3.32300       -1.08900       -3.71000
N          1.94900       -2.93400       -3.46000
C          0.67400       -3.30300       -3.18700
P          3.09200       -9.16300       -2.24800
O          4.07200      -10.10000       -2.82700
O          2.26100       -9.60600       -1.11100
O          3.86600       -7.82300       -1.81800
C          4.74700       -7.16800       -2.71900
C          5.26300       -5.85400       -2.17700
O          4.18700       -4.94900       -1.99600
C          5.98900       -5.98400       -0.83100
O          7.30700       -5.48500       -0.97900
C          5.13500       -5.12200        0.09300
C          4.47300       -4.15700       -0.86000
N          3.21300       -3.54900       -0.37600
C          3.09800       -2.15900       -0.34100
O          4.02500       -1.40300       -0.57700
N          1.86500       -1.66500       -0.01300
C          0.75600       -2.40400        0.28700
O         -0.30300       -1.83100        0.51600
C          0.94300       -3.85900        0.28600
C         -0.17900       -4.76300        0.65500
C          2.15100       -4.35100       -0.05200
P          8.43000       -5.60500        0.15400
O          9.74900       -5.66700       -0.50100
O          8.03800       -6.68400        1.08700
O          8.29400       -4.19700        0.91900
C          8.75300       -2.99900        0.31700
C          8.60100       -1.78800        1.23200
O          7.22000       -1.43100        1.34900
C          9.14100       -2.00600        2.65200
O          9.99400       -0.91800        2.98500
C          7.86800       -2.05000        3.49200
C          6.90700       -1.17900        2.70400
N          5.49500       -1.49800        2.90400
C          4.90900       -2.74100        2.93600
N          3.60300       -2.71100        3.04000
C          3.30600       -1.35100        3.07800
C          2.09300       -0.64000        3.17200
N          0.90500       -1.23300        3.22100
N          2.13100        0.70500        3.20900
C          3.32200        1.29800        3.15000
N          4.53100        0.74000        3.05000
C          4.45700       -0.59700        3.01100
P         10.68800       -0.76800        4.42800
O         11.93700       -0.01600        4.24100
O         10.73600       -2.08300        5.10300
O          9.63500        0.15800        5.20000
C          9.40200        1.49200        4.77500
C          8.25700        2.14800        5.53500
O          7.03800        1.44000        5.28800
C          8.46200        2.17000        7.05400
O          8.53600        3.52000        7.48900
C          7.21400        1.45100        7.58300
C          6.22700        1.56600        6.44300
N          5.19200        0.50500        6.43300
C          3.82100        0.84500        6.47100
O          3.48800        2.03100        6.54500
N          2.88000       -0.12700        6.43400
C          3.25900       -1.40200        6.36300
N          2.30400       -2.31900        6.31700
C          4.64500       -1.78500        6.33000
C          5.56400       -0.80500        6.36500
P          8.79500        3.95500        9.00800
O          9.53200        5.23300        9.01500
O          9.35400        2.80800        9.75000
O          7.29300        4.22000        9.50600
C          6.53900        5.30800        8.98300
C          5.14400        5.38200        9.57800
O          4.37400        4.23700        9.18400
C          5.14300        5.41200       11.11300
O          4.19400        6.35800       11.57700
C          4.71000        3.99400       11.46100
C          3.75200        3.68500       10.33200
N          3.51100        2.25500       10.11900
C          4.43400        1.24700        9.95500
N          3.88500        0.08000        9.73800
C          2.50800        0.33000        9.76100
C          1.38700       -0.53800        9.58700
O          1.39800       -1.74200        9.35200
N          0.17000        0.11400        9.70100
C          0.03800        1.44600        9.95200
N         -1.21600        1.90800       10.04300
N          1.06500        2.27500       10.10700
C          2.26900        1.65500       10.00100
H         -8.48900       -5.20500       -6.17300
H         -7.09100       -5.96200       -7.81500
H         -7.36400       -7.15700       -6.53600
H         -5.08300       -7.12100       -7.17700
H         -5.88700       -6.92800       -4.48000
H         -3.60500       -5.64100       -3.89800
H         -5.06900       -4.77600       -4.03400
H         -2.85800       -5.08800       -6.00300
H         -2.60700        1.18000       -5.66600
H         -4.25400        1.29700       -5.24100
H         -5.67400       -0.67400       -5.03000
H         -5.77500       -3.05200       -5.20300
H         -1.52500       -7.80300       -5.74300
H         -1.13900       -9.31900       -4.89700
H          0.83500       -8.22700       -5.35300
H          0.29500       -9.01100       -2.74300
H          1.50000       -6.88400       -1.68000
H         -0.19600       -6.84900       -1.85800
H          1.91800       -5.57400       -3.52400
H         -1.77200       -5.28000       -2.63900
H          3.44300       -0.11200       -3.71800
H          4.09200       -1.68100       -3.87800
H          2.67600       -3.57500       -3.63200
H          4.22400       -6.98000       -3.63300
H          5.59000       -7.80900       -2.87100
H          5.96600       -5.50000       -2.90200
H          6.09100       -6.98100       -0.45700
H          5.74200       -4.60400        0.80500
H          4.43700       -5.68900        0.67300
H          5.12300       -3.32300       -1.02400
H          1.76800       -0.68600        0.00900
H         -1.04500       -4.18000        0.88800
H          0.09900       -5.34600        1.50800
H         -0.39700       -5.41400       -0.16600
H          2.28100       -5.37500       -0.06700
H          8.19000       -2.82700       -0.57600
H          9.79600       -3.11900        0.10900
H          9.18000       -1.01400        0.77300
H          9.73000       -2.88800        2.79300
H          8.03800       -1.64800        4.46900
H          7.50300       -3.04300        3.65100
H          7.02400       -0.16400        3.02100
H          5.44900       -3.61900        2.88300
H          0.84400       -2.21500        3.19600
H          0.08600       -0.69000        3.28200
H          3.30900        2.32900        3.18700
H          9.16300        1.48400        3.73200
H         10.29000        2.05700        4.96800
H          8.21900        3.15700        5.18100
H          9.36100        1.70000        7.39500
H          6.84000        1.93200        8.46200
H          7.40700        0.43700        7.86500
H          5.67900        2.48200        6.51400
H          1.35800       -2.04600        6.34000
H          2.54000       -3.27300        6.26000
H          4.92400       -2.77700        6.28100
H          6.56700       -1.04800        6.34000
H          6.45500        5.19000        7.92300
H          7.05100        6.21300        9.23700
H          4.72300        6.29400        9.21000
H          6.07900        5.69100       11.54900
H          3.32200        6.14900       11.20800
H          4.21900        3.95700       12.41100
H          5.52000        3.30000       11.54800
H          2.78700        4.09100       10.55400
H          5.45400        1.39700        9.99900
H         -1.97700        1.29300        9.92800
H         -1.37700        2.86200       10.22500
H          0.96400        3.23900       10.28100
