189
seed-6_sample-3_model_chainA_pH74.pdb
O          6.38500      -10.76600       -4.97800
C          7.80000      -10.75300       -5.11200
C          8.39500       -9.37900       -4.81300
O          7.79200       -8.38600       -5.65100
C          8.18000       -8.92900       -3.36400
O          9.40800       -8.41500       -2.86000
C          7.09300       -7.88700       -3.48300
C          7.35000       -7.29300       -4.86000
N          6.14800       -6.68200       -5.47400
C          6.19200       -5.33700       -5.90600
O          7.23800       -4.67700       -5.75600
N          5.09700       -4.77200       -6.47000
C          3.98700       -5.50000       -6.61200
N          2.93400       -4.90200       -7.16900
C          3.91500       -6.87400       -6.18700
C          5.01400       -7.41900       -5.63200
P          9.66400       -7.85200       -1.44400
O         11.07200       -8.10200       -1.06100
O          8.58400       -8.32100       -0.55100
O          9.47400       -6.27200       -1.69300
C         10.39000       -5.55000       -2.50100
C         10.09200       -4.06000       -2.52500
O          8.87600       -3.79600       -3.22300
C          9.95500       -3.45100       -1.12400
O         10.83100       -2.33800       -1.03700
C          8.48600       -3.04700       -1.07600
C          8.14700       -2.79300       -2.53000
N          6.72800       -2.93100       -2.84400
C          5.97100       -4.07600       -2.75700
N          4.75900       -3.93700       -3.21400
C          4.69600       -2.60900       -3.63100
C          3.64200       -1.87300       -4.24000
O          2.53000       -2.28000       -4.56000
N          3.97800       -0.54900       -4.48700
C          5.18900        0.00100       -4.19000
N          5.33100        1.30400       -4.48600
N          6.20000       -0.67500       -3.63800
C          5.89100       -1.97100       -3.39000
P         11.04000       -1.51500        0.29500
O         12.39600       -0.93400        0.25900
O         10.65300       -2.35700        1.44500
O          9.97100       -0.32700        0.15100
C         10.13200        0.68700       -0.83300
C          8.96500        1.65800       -0.86200
O          7.78000        0.98100       -1.26200
C          8.67700        2.32400        0.49500
O          8.67400        3.73600        0.32100
C          7.29300        1.77400        0.83600
C          6.69900        1.53700       -0.53200
N          5.55700        0.60100       -0.56200
C          4.36600        1.00400       -1.17100
O          4.18400        2.12500       -1.60600
N          3.38200        0.05400       -1.25400
C          3.46200       -1.23200       -0.79400
O          2.52000       -1.99400       -0.97200
C          4.72200       -1.59600       -0.12300
C          4.90400       -2.96500        0.45400
C          5.69700       -0.67000       -0.05400
P          8.45900        4.73600        1.54600
O          9.21200        5.97200        1.25300
O          8.71800        4.02200        2.81400
O          6.88300        5.05300        1.45500
C          6.36500        5.88600        0.43000
C          4.87000        6.14500        0.58600
O          4.12900        4.95700        0.28700
C          4.46200        6.59400        1.99900
O          3.68200        7.78100        1.89200
C          3.65600        5.39800        2.50500
C          3.07500        4.82600        1.22600
N          2.70200        3.41500        1.32100
C          3.45300        2.37300        1.81300
N          2.87900        1.20100        1.70100
C          1.66000        1.49300        1.09100
C          0.57700        0.68200        0.68000
N          0.56700       -0.63900        0.81600
N         -0.50100        1.27300        0.11900
C         -0.48700        2.59500       -0.02700
N          0.47400        3.46300        0.30400
C          1.53300        2.84500        0.85900
P          3.03600        8.48500        3.18700
O          2.95500        9.92200        2.89100
O          3.73900        8.04000        4.40800
O          1.55500        7.87400        3.20100
C          0.63900        8.18600        2.16400
C         -0.65300        7.38600        2.27800
O         -0.38000        5.98400        2.21700
C         -1.43400        7.63400        3.57800
O         -2.77200        7.98300        3.24900
C         -1.35500        6.27400        4.27800
C         -1.27200        5.32500        3.09900
N         -0.75000        3.97600        3.43500
C         -1.50100        2.82900        3.09100
O         -2.59100        2.95600        2.53200
N         -1.02300        1.59400        3.38300
C          0.15800        1.47600        3.99300
N          0.58600        0.24900        4.25400
C          0.94700        2.62000        4.36000
C          0.45600        3.83500        4.06000
P         -3.91800        8.24200        4.31100
O         -4.76200        9.33800        3.80300
O         -3.31200        8.36800        5.65100
O         -4.74500        6.87400        4.24100
C         -5.47900        6.52300        3.07100
C         -6.32900        5.27800        3.27100
O         -5.51000        4.11600        3.43100
C         -7.23800        5.35400        4.51000
O         -8.52700        4.85200        4.18900
C         -6.51900        4.41600        5.48200
C         -5.99500        3.36500        4.53700
N         -4.90100        2.55700        5.08100
C         -3.67500        2.99700        5.53400
N         -2.88600        2.02200        5.89800
C         -3.63700        0.86300        5.68200
C         -3.31300       -0.51100        5.87900
O         -2.25300       -0.98400        6.28600
N         -4.35800       -1.36500        5.54900
C         -5.57200       -0.95000        5.07600
N         -6.46500       -1.91800        4.82800
N         -5.89000        0.32800        4.87100
C         -4.87800        1.17900        5.19000
H          6.05000      -11.65400       -5.17600
H          8.05400      -11.02800       -6.11500
H          8.20300      -11.44700       -4.40400
H          9.44500       -9.47500       -4.99500
H          7.89100       -9.70100       -2.68100
H          7.18500       -7.14400       -2.71900
H          6.10700       -8.28700       -3.37000
H          8.06200       -6.49700       -4.78900
H          2.99600       -3.96200       -7.45500
H          2.09400       -5.40000       -7.29400
H          3.04900       -7.42300       -6.30400
H          4.99700       -8.40400       -5.32400
H         10.33700       -5.92700       -3.50100
H         11.36600       -5.68100       -2.08400
H         10.92900       -3.61300       -3.01900
H         10.21000       -4.09800       -0.31000
H          8.35100       -2.16200       -0.49100
H          7.86200       -3.78900       -0.62400
H          8.39100       -1.78600       -2.79700
H          6.32900       -4.96200       -2.36700
H          4.58500        1.80100       -4.89300
H          6.18100        1.76200       -4.29600
H          7.07600       -0.27500       -3.43300
H         10.21700        0.22300       -1.79300
H         11.01200        1.24300       -0.58600
H          9.24700        2.42200       -1.55600
H          9.39000        2.12600        1.26800
H          6.71800        2.48600        1.39100
H          7.31800        0.89900        1.45100
H          6.29700        2.44900       -0.92100
H          2.53800        0.32200       -1.68500
H          4.01600       -3.54100        0.29300
H          5.09300       -2.88700        1.50400
H          5.73200       -3.44600       -0.02300
H          6.58800       -0.92500        0.40000
H          6.53400        5.41300       -0.51500
H          6.86600        6.82900        0.49400
H          4.64900        6.93900       -0.09600
H          5.26900        6.83400        2.66000
H          2.88200        5.70900        3.17500
H          4.24100        4.69400        3.05900
H          2.17100        5.33900        0.97100
H          4.38600        2.50300        2.23300
H          1.33800       -1.09800        1.22100
H         -0.21100       -1.15900        0.51200
H         -1.33200        3.00600       -0.45300
H          1.09700        7.96800        1.22200
H          0.39100        9.22400        2.24500
H         -1.25200        7.71800        1.45600
H         -1.05800        8.42700        4.19000
H         -2.22800        6.08800        4.86800
H         -0.53900        6.18600        4.96400
H         -2.24500        5.13300        2.69800
H          0.03800       -0.52800        3.99900
H          1.45200        0.11500        4.70300
H          1.85600        2.51300        4.83600
H          1.00000        4.67600        4.30600
H         -4.78900        6.34300        2.27300
H         -6.13800        7.33500        2.84400
H         -6.93500        5.21500        2.39100
H         -7.38700        6.34100        4.89500
H         -8.44500        3.95300        3.83400
H         -7.19600        3.99800        6.19700
H         -5.76500        4.89000        6.07500
H         -6.76800        2.66200        4.30700
H         -3.40900        3.99300        5.58100
H         -6.22500       -2.86000        4.98100
H         -7.36100       -1.68700        4.49300
H         -6.76300        0.62400        4.52600
