189
seed-8_sample-4_model_chainA_pH74.pdb
O         -8.62300       -4.51300       -4.80600
C         -9.52300       -3.67600       -5.52900
C         -9.12600       -2.19200       -5.46100
O         -9.14600       -1.73800       -4.10800
C         -7.71700       -1.93400       -6.00800
O         -7.77200       -0.94500       -7.03000
C         -6.92700       -1.48500       -4.80100
C         -7.97600       -0.97400       -3.84200
N         -7.56300       -1.14900       -2.42600
C         -7.43500       -0.02900       -1.58400
O         -7.66200        1.10800       -2.03000
N         -7.05900       -0.19200       -0.29500
C         -6.81500       -1.42400        0.15300
N         -6.44400       -1.54000        1.42300
C         -6.93700       -2.58500       -0.68500
C         -7.31200       -2.40200       -1.95500
P         -6.55200       -0.54400       -7.94600
O         -7.08200        0.02300       -9.20600
O         -5.62000       -1.68600       -8.01300
O         -5.86100        0.64100       -7.10100
C         -6.48800        1.91000       -6.98300
C         -5.64400        2.92600       -6.23600
O         -5.53300        2.57600       -4.85800
C         -4.21900        3.07400       -6.79600
O         -3.95800        4.46400       -6.95300
C         -3.37800        2.42100       -5.70500
C         -4.17900        2.68200       -4.43900
N         -3.95700        1.71900       -3.37700
C         -4.08300        0.35400       -3.46900
N         -3.96800       -0.25300       -2.32600
C         -3.74300        0.77200       -1.40800
C         -3.57000        0.73600        0.00100
O         -3.61300       -0.24000        0.73000
N         -3.34500        1.98500        0.55100
C         -3.29600        3.13400       -0.16900
N         -3.04000        4.24600        0.52600
N         -3.48800        3.19600       -1.48500
C         -3.70900        1.98700       -2.04200
P         -2.60500        5.05700       -7.52800
O         -2.90700        6.38000       -8.09800
O         -1.96700        4.03400       -8.37500
O         -1.70200        5.26200       -6.21700
C         -2.01700        6.25900       -5.25900
C         -1.14700        6.18300       -4.02800
O         -1.36400        4.95500       -3.34900
C          0.35800        6.26800       -4.32900
O          0.86900        7.45000       -3.74000
C          0.89800        4.99800       -3.68000
C         -0.16500        4.64100       -2.66800
N         -0.18200        3.22300       -2.26100
C         -0.06300        2.89900       -0.91100
O          0.14900        3.72200       -0.04400
N         -0.19700        1.57700       -0.59000
C         -0.42500        0.56000       -1.47100
O         -0.56500       -0.58000       -1.04500
C         -0.49800        0.94700       -2.89100
C         -0.70200       -0.08600       -3.95000
C         -0.38400        2.24900       -3.20600
P          2.38600        7.93200       -3.89600
O          2.41400        9.40500       -3.82300
O          2.96400        7.25700       -5.07000
O          3.07900        7.34100       -2.57600
C          2.80900        7.89500       -1.30000
C          3.63200        7.25500       -0.19400
O          3.19300        5.91100        0.02600
C          5.13500        7.20700       -0.49600
O          5.83500        7.70400        0.64500
C          5.37200        5.72000       -0.75400
C          4.31600        5.05100        0.10500
N          3.90300        3.73100       -0.36900
C          3.57100        3.35700       -1.65300
N          3.13100        2.12900       -1.75200
C          3.17800        1.65600       -0.44100
C          2.82700        0.41900        0.14300
N          2.31500       -0.58800       -0.54200
N          3.01000        0.25100        1.46800
C          3.51200        1.26800        2.16000
N          3.86300        2.48300        1.72900
C          3.66600        2.61900        0.41100
P          7.43200        7.80300        0.67000
O          7.79200        8.81300        1.67200
O          7.93900        7.94900       -0.70700
O          7.86400        6.35700        1.20300
C          7.61900        5.96900        2.54400
C          7.88400        4.48900        2.77700
O          6.99800        3.69600        1.97800
C          9.29900        4.03400        2.39900
O         10.06800        3.81200        3.57200
C          9.05500        2.73600        1.62300
C          7.60000        2.41500        1.88400
N          6.99400        1.61400        0.78600
C          6.50600        0.31400        1.04100
O          6.58300       -0.15300        2.18000
N          5.96400       -0.42300        0.04300
C          5.89500        0.09600       -1.18300
N          5.35000       -0.65900       -2.13000
C          6.38500        1.41800       -1.48500
C          6.91800        2.12800       -0.47700
P         11.58500        3.30900        3.54400
O         12.26000        3.83700        4.73800
O         12.16100        3.59200        2.21800
O         11.41500        1.72300        3.70800
C         10.94200        1.16400        4.92100
C         10.93700       -0.35800        4.91500
O          9.97800       -0.85100        3.96900
C         12.29300       -0.96500        4.53500
O         12.57500       -2.09400        5.35000
C         12.06000       -1.38500        3.08800
C         10.60400       -1.80000        3.11600
N          9.96500       -1.76400        1.79600
C          9.94900       -0.71600        0.90200
N          9.27200       -0.98100       -0.18300
C          8.80300       -2.29300        0.00200
C          8.00900       -3.13400       -0.83000
O          7.52800       -2.86600       -1.93000
N          7.77700       -4.38600       -0.28300
C          8.24600       -4.78100        0.93000
N          7.93200       -6.03100        1.29500
N          8.98600       -4.01300        1.72600
C          9.22700       -2.78300        1.20700
H         -8.91200       -5.43600       -4.87700
H        -10.50400       -3.78900       -5.11600
H         -9.49300       -3.97500       -6.55600
H         -9.83700       -1.66600       -6.06300
H         -7.26500       -2.79100       -6.46300
H         -6.24200       -0.70700       -5.06400
H         -6.33600       -2.27200       -4.38100
H         -8.13400        0.07500       -3.98100
H         -6.36400       -0.73800        1.98800
H         -6.24900       -2.42800        1.80000
H         -6.74100       -3.53000       -0.31800
H         -7.41200       -3.21500       -2.58200
H         -7.41300        1.78500       -6.45900
H         -6.63500        2.28600       -7.97400
H         -6.15400        3.85800       -6.36100
H         -4.03100        2.62900       -7.75100
H         -2.41000        2.87300       -5.64600
H         -3.20100        1.38000       -5.88000
H         -3.89500        3.62800       -4.02800
H         -4.25200       -0.14100       -4.35900
H         -2.89900        4.19700        1.49900
H         -2.99300        5.11500        0.06500
H         -3.47100        4.03600       -1.99800
H         -3.03800        6.13900       -4.96400
H         -1.84500        7.21100       -5.71600
H         -1.42500        7.02800       -3.43400
H          0.62200        6.32100       -5.36500
H          1.83600        5.18300       -3.20000
H          1.08200        4.21500       -4.38500
H         -0.00200        5.16800       -1.75100
H         -0.12200        1.33700        0.36200
H         -0.76800       -1.05300       -3.49700
H          0.12300       -0.06600       -4.63100
H         -1.60800        0.12100       -4.48100
H         -0.45100        2.52700       -4.19800
H          1.77200        7.75500       -1.07900
H          3.07000        8.93200       -1.33700
H          3.48500        7.87000        0.66900
H          5.46900        7.80000       -1.32200
H          6.35600        5.42900       -0.45000
H          5.30300        5.45600       -1.78900
H          4.71000        4.90000        1.08800
H          3.66100        3.98900       -2.46400
H          2.16800       -0.50000       -1.51100
H          2.08100       -1.42700       -0.08300
H          3.65000        1.09600        3.16800
H          6.59600        6.17600        2.78000
H          8.28600        6.52300        3.17100
H          7.74100        4.35400        3.82900
H          9.84700        4.75100        1.82500
H          9.68700        1.95300        1.98600
H          9.27200        2.83500        0.58000
H          7.46500        1.81600        2.76000
H          5.01900       -1.56000       -1.91100
H          5.27700       -0.31800       -3.05100
H          6.32800        1.80400       -2.44000
H          7.27600        3.07800       -0.66000
H          9.94200        1.50700        5.08700
H         11.60800        1.47800        5.69800
H         10.69400       -0.64700        5.91600
H         13.12100       -0.29900        4.66100
H         11.85200       -2.73600        5.27400
H         12.69300       -2.20300        2.81300
H         12.27800       -0.61900        2.37400
H         10.51400       -2.81300        3.44900
H         10.42300        0.18500        1.07200
H          7.38400       -6.59400        0.70200
H          8.24900       -6.38700        2.15700
H          9.32400       -4.30800        2.60200
