189
seed-8_sample-3_model_chainA_pH74.pdb
O        -12.12300       -1.64100       -4.32300
C        -13.18300       -0.67100       -4.26100
C        -12.66200        0.70400       -3.84200
O        -12.16400        0.66100       -2.50700
C        -11.52000        1.20800       -4.73200
O        -11.81800        2.52900       -5.15100
C        -10.31000        1.13200       -3.82500
C        -10.92000        1.34900       -2.45800
N        -10.06600        0.81700       -1.36100
C         -9.49500        1.72100       -0.43800
O         -9.68700        2.94200       -0.56800
N         -8.73800        1.25500        0.58400
C         -8.54200       -0.06100        0.69900
N         -7.80200       -0.47200        1.73100
C         -9.10300       -1.00300       -0.23700
C         -9.85400       -0.52200       -1.23900
P        -11.00200        3.29300       -6.26600
O        -11.88400        4.26800       -6.94500
O        -10.28700        2.29200       -7.08200
O         -9.93200        4.09100       -5.38100
C        -10.29900        5.26000       -4.65600
C         -9.09800        5.98000       -4.08300
O         -8.54700        5.24600       -2.99100
C         -7.97700        6.20600       -5.10500
O         -7.55900        7.56500       -5.01300
C         -6.91500        5.21700       -4.63500
C         -7.13400        5.17900       -3.13000
N         -6.67100        3.96100       -2.48500
C         -7.05700        2.67700       -2.78100
N         -6.61000        1.79400       -1.93500
C         -5.86200        2.53200       -1.01900
C         -5.16300        2.13000        0.14800
O         -5.08900        1.00600        0.62500
N         -4.52400        3.18200        0.78300
C         -4.56300        4.46700        0.35000
N         -3.86200        5.35200        1.07600
N         -5.24000        4.87100       -0.72100
C         -5.87100        3.86100       -1.35700
P         -6.42200        8.17800       -5.95900
O         -6.66400        9.63100       -6.03700
O         -6.33500        7.40400       -7.20800
O         -5.08800        7.92500       -5.11300
C         -4.85300        8.60000       -3.88500
C         -3.60700        8.09500       -3.18600
O         -3.77800        6.74100       -2.79900
C         -2.34100        8.15300       -4.06000
O         -1.41500        9.03500       -3.45600
C         -1.87500        6.69600       -4.05000
C         -2.48600        6.16000       -2.77900
N         -2.59400        4.68500       -2.70600
C         -2.00800        4.01500       -1.63200
O         -1.31300        4.56000       -0.79800
N         -2.24900        2.67000       -1.55600
C         -3.00000        1.93900       -2.43000
O         -3.17700        0.74500       -2.22200
C         -3.55500        2.68300       -3.57100
C         -4.35800        1.98200       -4.61900
C         -3.33200        4.00900       -3.64400
P         -0.00300        9.39700       -4.13800
O          0.37900       10.75000       -3.69300
O         -0.07000        9.11500       -5.58400
O          0.98200        8.32600       -3.46500
C          1.40200        8.47100       -2.12200
C          2.40800        7.40400       -1.71000
O          1.75900        6.13300       -1.59800
C          3.57100        7.24200       -2.70400
O          4.79100        7.31300       -1.97300
C          3.30000        5.85900       -3.29900
C          2.59700        5.14000       -2.16300
N          1.76000        4.01500       -2.58000
C          0.85700        3.97400       -3.61500
N          0.17800        2.85900       -3.68300
C          0.67300        2.10600       -2.61500
C          0.35800        0.82100       -2.11900
N         -0.58200        0.05000       -2.64800
N          1.04100        0.35000       -1.05700
C          1.97000        1.12500       -0.51800
N          2.34500        2.35500       -0.88400
C          1.65000        2.79600       -1.94100
P          6.22100        7.12000       -2.70400
O          7.20800        7.84100       -1.89200
O          6.11400        7.42900       -4.14200
O          6.47000        5.54800       -2.54300
C          6.66200        4.97500       -1.26500
C          6.66200        3.45300       -1.31100
O          5.39500        2.96600       -1.77600
C          7.72700        2.85300       -2.24000
O          8.60100        2.03700       -1.47500
C          6.88600        2.02400       -3.22000
C          5.64900        1.71900       -2.39800
N          4.48800        1.28700       -3.21600
C          3.86000        0.05200       -2.94400
O          4.27100       -0.65000       -2.01900
N          2.81700       -0.36600       -3.69800
C          2.38900        0.40600       -4.69700
N          1.36900       -0.04900       -5.41300
C          3.00000        1.67900       -5.00200
C          4.03300        2.07000       -4.23900
P          9.80300        1.18400       -2.07500
O         10.92100        1.24300       -1.12100
O         10.03600        1.59600       -3.47300
O          9.18800       -0.29200       -2.05900
C          8.94900       -0.95100       -0.82000
C          8.46800       -2.38200       -1.00600
O          7.18300       -2.40200       -1.63900
C          9.40400       -3.22500       -1.88000
O          9.49900       -4.54900       -1.34900
C          8.66100       -3.22400       -3.20900
C          7.22700       -3.30800       -2.72800
N          6.24400       -2.90600       -3.72700
C          6.15700       -1.70500       -4.39400
N          5.12500       -1.63200       -5.18900
C          4.48400       -2.87000       -5.04600
C          3.29900       -3.39000       -5.64200
O          2.55100       -2.82500       -6.43800
N          3.00900       -4.68200       -5.23200
C          3.76500       -5.39200       -4.34800
N          3.33600       -6.63600       -4.07700
N          4.86700       -4.92500       -3.77100
C          5.16800       -3.66000       -4.16000
H        -12.48600       -2.50000       -4.59100
H        -13.91200       -0.99800       -3.54900
H        -13.61400       -0.58300       -5.23600
H        -13.49600        1.36900       -3.93300
H        -11.36200        0.64700       -5.62900
H         -9.60100        1.89800       -4.05900
H         -9.76600        0.21500       -3.91100
H        -11.02900        2.39200       -2.24500
H         -7.42700        0.18500        2.36000
H         -7.63100       -1.43300        1.86300
H         -8.93200       -2.01600       -0.13900
H        -10.27400       -1.17200       -1.92200
H        -10.94700        4.97800       -3.85200
H        -10.78800        5.92700       -5.33500
H         -9.46400        6.93400       -3.76700
H         -8.23300        6.05000       -6.13200
H         -5.93200        5.56500       -4.87300
H         -6.99500        4.25600       -5.10000
H         -6.58400        5.97100       -2.66700
H         -7.64400        2.43500       -3.59500
H         -3.36100        5.05200        1.86900
H         -3.84900        6.30100        0.81600
H         -5.27700        5.80900       -1.01900
H         -5.69500        8.44900       -3.24200
H         -4.71100        9.63800       -4.10200
H         -3.47300        8.74400       -2.34600
H         -2.47700        8.51800       -5.05700
H         -0.80700        6.63300       -4.02100
H         -2.16700        6.15100       -4.92400
H         -1.87800        6.40200       -1.93200
H         -1.84300        2.18500       -0.80100
H         -4.42100        0.94000       -4.38300
H         -3.88600        2.10400       -5.57100
H         -5.34200        2.40000       -4.65300
H         -3.73200        4.53700       -4.43600
H          0.54600        8.40000       -1.48500
H          1.88100        9.42400       -2.03100
H          2.80800        7.73100       -0.77300
H          3.64700        7.98600       -3.46900
H          4.21300        5.36600       -3.56200
H          2.72700        5.89000       -4.20200
H          3.32500        4.71800       -1.50200
H          0.72700        4.75300       -4.27900
H         -1.09800        0.36600       -3.42400
H         -0.76400       -0.83800       -2.26400
H          2.47100        0.72700        0.29200
H          5.87300        5.30000       -0.62000
H          7.61700        5.29300       -0.90300
H          6.87400        3.15200       -0.30600
H          8.34600        3.56900       -2.74000
H          7.39400        1.12600       -3.50500
H          6.67800        2.52700       -4.14100
H          5.79900        0.90300       -1.72300
H          0.96300       -0.91800       -5.19400
H          1.01900        0.48300       -6.16400
H          2.65500        2.26600       -5.77800
H          4.49000        2.97600       -4.42800
H          8.20400       -0.40600       -0.27900
H          9.87500       -0.98600       -0.28600
H          8.43500       -2.79900       -0.02100
H         10.40800       -2.86000       -1.94700
H          8.61000       -4.92900       -1.26700
H          8.92600       -4.06900       -3.81000
H          8.87100       -2.38200       -3.83500
H          6.97600       -4.31900       -2.48400
H          6.83900       -0.94000       -4.27700
H          2.51900       -6.97900       -4.50600
H          3.83900       -7.20400       -3.44900
H          5.40700       -5.44100       -3.13000
