189
seed-1_sample-3_model_chainA_pH74.pdb
O         -5.29800       -1.04500       11.21700
C         -6.51900       -0.38400       11.49700
C         -6.78900        0.81100       10.57200
O         -5.74400        1.78000       10.69100
C         -6.86900        0.41500        9.09200
O         -8.01600        1.02000        8.51000
C         -5.57300        0.94800        8.51900
C         -5.31700        2.16700        9.39200
N         -3.88700        2.55600        9.41500
C         -3.50000        3.82800        8.93800
O         -4.36500        4.61600        8.52700
N         -2.19000        4.17300        8.92300
C         -1.28100        3.30200        9.36600
N         -0.00700        3.68100        9.32100
C         -1.64600        2.00800        9.86800
C         -2.94800        1.68200        9.87700
P         -8.54700        0.83700        7.07000
O        -10.02700        0.82500        7.08100
O         -7.82900       -0.32000        6.49800
O         -8.05400        2.16900        6.31900
C         -8.64600        3.42800        6.59400
C         -8.30500        4.48600        5.55900
O         -6.93600        4.88500        5.68000
C         -8.51600        4.01700        4.11400
O         -9.09000        5.08900        3.36500
C         -7.10500        3.66900        3.68300
C         -6.24900        4.66900        4.45100
N         -4.90400        4.19200        4.76900
C         -4.58400        3.05000        5.46400
N         -3.31100        2.94200        5.73000
C         -2.73800        4.08400        5.17100
C         -1.39400        4.54500        5.16600
O         -0.42100        4.01900        5.69600
N         -1.22900        5.73500        4.47700
C         -2.24400        6.41200        3.87300
N         -1.90000        7.53600        3.23400
N         -3.51900        6.01800        3.88800
C         -3.69900        4.85100        4.55700
P         -9.49100        4.96400        1.83600
O        -10.55400        5.94700        1.56200
O         -9.73700        3.54300        1.53500
O         -8.16000        5.41600        1.06800
C         -7.72200        6.75900        1.10500
C         -6.36900        6.94600        0.44800
O         -5.37600        6.21100        1.15400
C         -6.32100        6.48300       -1.01900
O         -5.85700        7.56400       -1.81600
C         -5.33200        5.32200       -0.95700
C         -4.45100        5.71100        0.20900
N         -3.68000        4.61100        0.82700
C         -2.30900        4.77200        1.02000
O         -1.68300        5.73700        0.61800
N         -1.67300        3.76700        1.70300
C         -2.25400        2.63600        2.20000
O         -1.57100        1.83300        2.83000
C         -3.69300        2.49100        1.92900
C         -4.42300        1.27400        2.38100
C         -4.32600        3.48300        1.27200
P         -5.77900        7.51400       -3.42600
O         -6.00400        8.87500       -3.95400
O         -6.64700        6.41200       -3.89400
O         -4.24900        7.09700       -3.68600
C         -3.20900        8.04300       -3.53800
C         -1.84300        7.47400       -3.90700
O         -1.41900        6.53000       -2.91700
C         -1.81600        6.75900       -5.27000
O         -0.71300        7.25600       -6.02000
C         -1.65400        5.29100       -4.85700
C         -0.86200        5.39900       -3.56300
N         -0.98400        4.24700       -2.66900
C         -2.12700        3.58200       -2.29300
N         -1.92900        2.63400       -1.41000
C         -0.55200        2.67600       -1.18800
C          0.30800        1.93300       -0.34800
N         -0.12000        0.97500        0.46900
N          1.62900        2.20000       -0.36900
C          2.05900        3.16000       -1.18000
N          1.35200        3.93900       -2.00400
C          0.04100        3.65000       -1.95900
P         -0.34300        6.71900       -7.49400
O          0.29200        7.82300       -8.22700
O         -1.51500        6.04700       -8.08600
O          0.77100        5.61000       -7.17200
C          2.02200        5.99800       -6.63100
C          2.85900        4.79500       -6.20900
O          2.17400        4.04100       -5.20100
C          3.18300        3.82500       -7.35600
O          4.58600        3.61400       -7.39300
C          2.42600        2.55700       -6.93500
C          2.45300        2.67100       -5.42100
N          1.45100        1.82900       -4.71100
C          1.88200        0.95000       -3.69200
O          3.08200        0.87900       -3.41600
N          0.98300        0.18900       -3.02500
C         -0.30900        0.28400       -3.33300
N         -1.15300       -0.47400       -2.64700
C         -0.79000        1.16200       -4.37200
C          0.12100        1.90700       -5.02100
P          5.34100        2.69700       -8.46300
O          6.63400        3.32700       -8.80000
O          4.39900        2.37700       -9.55600
O          5.61500        1.37000       -7.60300
C          6.59100        1.36200       -6.56900
C          6.78400       -0.01700       -5.95300
O          5.63000       -0.41300       -5.19800
C          7.03000       -1.12100       -6.99500
O          8.08200       -1.97200       -6.55500
C          5.69600       -1.87000       -6.98500
C          5.30000       -1.75100       -5.52800
N          3.87600       -1.98100       -5.27300
C          2.79900       -1.36600       -5.87900
N          1.64900       -1.74800       -5.39800
C          1.98000       -2.68400       -4.40900
C          1.15800       -3.44000       -3.53000
O         -0.06900       -3.41800       -3.43900
N          1.88600       -4.28000       -2.69700
C          3.25100       -4.37400       -2.70400
N          3.77900       -5.24700       -1.83900
N          4.03900       -3.66400       -3.50900
C          3.34200       -2.84000       -4.33100
H         -5.18400       -1.78700       11.83100
H         -6.49100       -0.03200       12.50700
H         -7.30600       -1.09200       11.33800
H         -7.73400        1.20800       10.88000
H         -6.97200       -0.63500        8.91300
H         -5.68700        1.22300        7.49100
H         -4.77400        0.23700        8.52700
H         -5.84000        3.02200        9.01700
H          0.23000        4.57100        8.97400
H          0.69900        3.07100        9.63400
H         -0.93000        1.34900       10.21100
H         -3.24100        0.76000       10.23700
H         -8.30300        3.76400        7.55000
H         -9.70700        3.29300        6.57400
H         -8.97300        5.29800        5.75700
H         -9.18200        3.19000        3.98100
H         -6.98500        3.79300        2.62700
H         -6.84400        2.65100        3.88500
H         -6.11900        5.54200        3.84600
H         -5.28300        2.34600        5.74800
H         -0.96000        7.82800        3.22200
H         -2.58700        8.07200        2.77500
H         -4.25000        6.52000        3.46000
H         -7.65300        7.07000        2.12700
H         -8.43200        7.34800        0.56200
H         -6.18600        8.00000        0.47400
H         -7.25500        6.18500       -1.44800
H         -4.76600        5.24600       -1.86200
H         -5.80000        4.36700       -0.84100
H         -3.69700        6.39300       -0.12300
H         -0.70500        3.87100        1.84900
H         -3.74300        0.61500        2.87900
H         -4.84600        0.77700        1.53300
H         -5.20400        1.55700        3.05600
H         -5.33900        3.39100        1.09600
H         -3.18200        8.36600       -2.51800
H         -3.41300        8.85600       -4.20400
H         -1.18800        8.31800       -3.96100
H         -2.67400        6.90200       -5.89400
H         -1.11300        4.73900       -5.59700
H         -2.58400        4.77400       -4.74600
H          0.18200        5.46200       -3.78900
H         -3.05900        3.80900       -2.67300
H         -1.07900        0.75400        0.50900
H          0.52200        0.48600        1.03400
H          3.07700        3.32700       -1.17300
H          1.85100        6.61700       -5.77500
H          2.56100        6.52600       -7.39000
H          3.77700        5.21000       -5.84900
H          2.90300        4.16200       -8.33200
H          2.92900        1.67400       -7.26900
H          1.44200        2.48200       -7.34800
H          3.39000        2.32600       -5.03600
H         -0.81600       -1.07000       -1.94000
H         -2.11700       -0.44100       -2.84500
H         -1.79300        1.21600       -4.60700
H         -0.18900        2.55000       -5.76700
H          6.28100        2.04000       -5.80100
H          7.52400        1.65500       -7.00300
H          7.64800        0.08200       -5.33000
H          7.31500       -0.76100       -7.96200
H          7.86700       -2.32400       -5.67700
H          5.81900       -2.89300       -7.27500
H          4.97100       -1.48200       -7.66900
H          5.80200       -2.49500       -4.94500
H          2.89500       -0.67300       -6.63700
H          3.19100       -5.76900       -1.24600
H          4.75500       -5.36700       -1.79500
H          5.02100       -3.73000       -3.50800
