189
seed-9_sample-3_model_chainA_pH74.pdb
O          1.29000       -6.10500       -7.53100
C          1.90100       -7.39400       -7.38200
C          2.65300       -7.51900       -6.04200
O          3.60100       -6.48500       -5.91700
C          1.72200       -7.37600       -4.84200
O          1.39100       -8.68300       -4.34600
C          2.52800       -6.59200       -3.83700
C          3.82300       -6.26800       -4.52300
N          4.22300       -4.85900       -4.25200
C          5.19400       -4.59400       -3.26700
O          5.68700       -5.53800       -2.62700
N          5.58900       -3.32600       -3.02100
C          5.03700       -2.33300       -3.72000
N          5.46700       -1.10000       -3.45300
C          4.02600       -2.57000       -4.71800
C          3.65500       -3.84100       -4.94900
P          0.24000       -8.96900       -3.30600
O         -0.01500      -10.41800       -3.27200
O         -0.86900       -8.05300       -3.61000
O          0.89200       -8.53000       -1.90400
C          1.86100       -9.32200       -1.22800
C          2.21600       -8.79200        0.14800
O          2.92800       -7.56500        0.05500
C          0.98700       -8.55900        1.04000
O          1.22400       -9.16300        2.30700
C          0.92700       -7.04000        1.09900
C          2.38800       -6.63300        0.99200
N          2.60000       -5.27500        0.48600
C          2.20400       -4.79800       -0.74000
N          2.66300       -3.60300       -1.00600
C          3.41300       -3.25000        0.11800
C          4.18200       -2.08600        0.40200
O          4.37600       -1.12500       -0.32400
N          4.76600       -2.10500        1.65600
C          4.63100       -3.13400        2.53600
N          5.24800       -2.97200        3.71400
N          3.94500       -4.25300        2.27900
C          3.36300       -4.25200        1.05400
P          0.11200       -9.24100        3.47800
O          0.49900      -10.32600        4.39700
O         -1.23100       -9.26000        2.87200
O          0.30100       -7.84400        4.23800
C          1.42600       -7.60000        5.05900
C          1.48000       -6.17300        5.56700
O          1.71800       -5.27300        4.48100
C          0.18400       -5.71300        6.25900
O          0.48200       -5.35800        7.60100
C         -0.23600       -4.52200        5.39100
C          1.08800       -4.05200        4.81500
N          0.97600       -3.17300        3.62000
C          1.66300       -1.95400        3.59600
O          2.30800       -1.53400        4.53300
N          1.57500       -1.22000        2.43800
C          0.87800       -1.57000        1.32100
O          0.90900       -0.82800        0.34300
C          0.15000       -2.85400        1.39800
C         -0.67700       -3.32200        0.24400
C          0.24200       -3.58600        2.53200
P         -0.61800       -4.86600        8.64400
O         -0.16300       -5.25600        9.99000
O         -1.95300       -5.30200        8.18700
O         -0.53600       -3.27000        8.50000
C          0.55200       -2.54000        9.03400
C          0.38100       -1.03300        8.90000
O          0.56400       -0.63100        7.53300
C         -1.00600       -0.52900        9.33600
O         -0.83100        0.48500       10.31400
C         -1.59300       -0.00400        8.02200
C         -0.35500        0.40700        7.24300
N         -0.55200        0.47500        5.79300
C         -1.06000       -0.50200        4.97100
N         -1.03400       -0.19100        3.69800
C         -0.47000        1.08600        3.67900
C         -0.15200        1.98100        2.63100
N         -0.34600        1.69600        1.35000
N          0.37800        3.18300        2.93500
C          0.58300        3.46500        4.21300
N          0.34100        2.70300        5.28500
C         -0.18600        1.51400        4.95600
P         -2.08000        1.22500       11.00700
O         -1.61800        1.72600       12.30500
O         -3.26800        0.34700       10.95900
O         -2.33400        2.46600       10.02800
C         -1.40700        3.53300        9.95500
C         -1.78200        4.55600        8.88800
O         -1.70000        3.96200        7.57700
C         -3.20900        5.10600        9.03300
O         -3.15700        6.52100        9.14800
C         -3.87100        4.66100        7.72400
C         -2.68800        4.58800        6.77600
N         -2.94900        3.80000        5.54600
C         -2.68500        4.38000        4.27800
O         -2.24400        5.53100        4.20800
N         -2.92300        3.67700        3.14100
C         -3.39800        2.43800        3.23400
N         -3.61100        1.79200        2.09200
C         -3.68200        1.81100        4.50700
C         -3.43800        2.52800        5.62100
P         -4.44200        7.43300        9.32900
O         -4.06700        8.58900       10.16500
O         -5.57800        6.59300        9.75900
O         -4.70600        7.93700        7.83000
C         -3.84900        8.88000        7.21100
C         -4.33600        9.32100        5.83800
O         -4.21500        8.25800        4.87600
C         -5.81100        9.76200        5.82200
O         -5.94600       10.95300        5.05300
C         -6.48600        8.58300        5.11600
C         -5.41300        8.19600        4.12100
N         -5.57400        6.86200        3.55300
C         -5.72900        5.66100        4.21900
N         -5.79800        4.63500        3.40800
C         -5.68600        5.19200        2.12700
C         -5.67800        4.58500        0.83400
O         -5.76000        3.39000        0.56300
N         -5.56300        5.50100       -0.20400
C         -5.46000        6.84500       -0.01900
N         -5.37000        7.57000       -1.13700
N         -5.44400        7.43300        1.17600
C         -5.56000        6.55400        2.20500
H          0.82800       -6.06300       -8.38300
H          2.59400       -7.54400       -8.18300
H          1.12700       -8.13300       -7.40000
H          3.10600       -8.48800       -6.04900
H          0.79800       -6.88700       -5.06900
H          2.70600       -7.18000       -2.96100
H          2.01500       -5.70800       -3.52100
H          4.62100       -6.88400       -4.16400
H          6.15900       -0.95800       -2.76700
H          5.09300       -0.33200       -3.94200
H          3.60000       -1.78800       -5.24000
H          2.93500       -4.04400       -5.66000
H          2.75100       -9.34900       -1.82100
H          1.43600      -10.29500       -1.09300
H          2.82400       -9.55100        0.59500
H          0.06600       -8.97900        0.69400
H          0.50200       -6.70800        2.02300
H          0.31400       -6.61300        0.33300
H          2.84300       -6.64000        1.96000
H          1.60300       -5.33100       -1.38800
H          5.75100       -2.14600        3.89700
H          5.19800       -3.67900        4.39700
H          3.87000       -5.00100        2.91400
H          2.31200       -7.79600        4.49200
H          1.35100       -8.24400        5.91000
H          2.27300       -6.15800        6.28600
H         -0.59500       -6.44300        6.33000
H         -0.69500       -3.75600        5.98100
H         -0.96100       -4.77300        4.64500
H          1.61800       -3.43700        5.51200
H          2.06000       -0.36300        2.41300
H         -0.61900       -2.60700       -0.55000
H         -1.69500       -3.42800        0.55500
H         -0.30900       -4.26600       -0.09900
H         -0.25700       -4.48800        2.58300
H          1.44300       -2.82900        8.51700
H          0.60500       -2.76400       10.07900
H          1.11900       -0.60700        9.54700
H         -1.64700       -1.25700        9.78800
H         -2.23600        0.83400        8.19400
H         -2.19700       -0.72300        7.51000
H         -0.04600        1.39200        7.52300
H         -1.42800       -1.39900        5.32400
H         -0.73100        0.82800        1.09200
H         -0.10500        2.35300        0.65800
H          0.98300        4.39600        4.40700
H         -0.44100        3.13400        9.72400
H         -1.40900        4.03200       10.90100
H         -1.08800        5.36000        9.01600
H         -3.74000        4.76000        9.89500
H         -4.59200        5.37800        7.39000
H         -4.41300        3.74200        7.80700
H         -2.41800        5.55300        6.40000
H         -3.41300        2.23100        1.23400
H         -3.96700        0.87400        2.10500
H         -4.05700        0.85100        4.55900
H         -3.62400        2.10900        6.54600
H         -2.88000        8.43900        7.10300
H         -3.82800        9.74900        7.83500
H         -3.71400       10.15500        5.58700
H         -6.22200        9.97600        6.78600
H         -5.58500       10.80700        4.16500
H         -7.38900        8.88200        4.62500
H         -6.79100        7.79200        5.76800
H         -5.44000        8.84800        3.27300
H         -5.78400        5.58100        5.24600
H         -5.38300        7.12500       -2.01500
H         -5.29100        8.55000       -1.08300
H         -5.35700        8.40600        1.30100
