189
seed-3_sample-4_model_chainA_pH74.pdb
O         -0.10000       12.29200       -2.03300
C         -0.04200       12.62900       -3.42200
C          0.58000       11.51900       -4.27300
O          1.88100       11.19100       -3.78400
C         -0.23400       10.22300       -4.27900
O         -0.34200        9.74400       -5.61500
C          0.57100        9.30700       -3.38400
C          1.98400        9.77600       -3.65700
N          2.92200        9.42600       -2.56300
C          4.06200        8.64100       -2.84200
O          4.27400        8.25500       -4.00500
N          4.91300        8.30900       -1.84000
C          4.66100        8.74000       -0.59700
N          5.52600        8.38600        0.35600
C          3.51200        9.54500       -0.28700
C          2.67900        9.86500       -1.29300
P         -1.24700        8.52900       -6.09200
O         -1.76900        8.80200       -7.44600
O         -2.19500        8.23200       -5.00300
O         -0.19000        7.32400       -6.19100
C          0.71700        7.22700       -7.28100
C          1.40700        5.87800       -7.34700
O          2.33300        5.73300       -6.26800
C          0.43500        4.69500       -7.28200
O          0.83700        3.72200       -8.24500
C          0.60900        4.22200       -5.84400
C          2.07600        4.51400       -5.58100
N          2.40400        4.70900       -4.17100
C          1.86400        5.64600       -3.32300
N          2.45000        5.68900       -2.15800
C          3.44200        4.71500       -2.22800
C          4.42700        4.31900       -1.28300
O          4.63000        4.78900       -0.16700
N          5.22900        3.28100       -1.73800
C          5.10000        2.69600       -2.96400
N          5.95000        1.69600       -3.23000
N          4.20300        3.07100       -3.87900
C          3.41000        4.08400       -3.45100
P          0.02000        2.36600       -8.51800
O          0.30800        1.93500       -9.90100
O         -1.38400        2.56700       -8.11300
O          0.69700        1.31600       -7.50900
C          2.01500        0.83600       -7.72600
C          2.49700       -0.05900       -6.60000
O          2.60000        0.69200       -5.39300
C          1.57500       -1.25900       -6.31600
O          2.33300       -2.45900       -6.43400
C          1.11400       -0.98000       -4.88400
C          2.26200       -0.17300       -4.32300
N          1.95100        0.64100       -3.12400
C          2.78000        0.53200       -2.00600
O          3.69100       -0.26800       -1.92600
N          2.51100        1.39300       -0.97000
C          1.51200        2.33000       -0.93700
O          1.41200        3.06800        0.03900
C          0.63700        2.37300       -2.12300
C         -0.51600        3.32500       -2.17900
C          0.91000        1.54300       -3.14700
P          1.66800       -3.92900       -6.28400
O          2.38800       -4.85700       -7.18600
O          0.19900       -3.80400       -6.41800
O          2.00700       -4.31200       -4.75900
C          3.31800       -4.69500       -4.37900
C          3.41200       -5.08000       -2.90600
O          3.27900       -3.91400       -2.07700
C          2.34200       -6.08900       -2.45100
O          2.98300       -7.15800       -1.75400
C          1.45400       -5.23000       -1.54900
C          2.43900       -4.22600       -0.97800
N          1.83000       -2.98300       -0.49600
C          0.88600       -2.19900       -1.12700
N          0.59000       -1.09800       -0.48600
C          1.39600       -1.15800        0.65300
C          1.57000       -0.28100        1.74800
N          0.92900        0.87700        1.86700
N          2.43400       -0.63000        2.72700
C          3.08000       -1.78800        2.61000
N          3.01500       -2.68900        1.62700
C          2.15200       -2.31100        0.66900
P          2.13500       -8.36900       -1.07900
O          3.00600       -9.55400       -1.08800
O          0.79400       -8.46300       -1.69800
O          1.95700       -7.86400        0.43600
C          3.07400       -7.79100        1.30900
C          2.72000       -7.12400        2.63700
O          2.24000       -5.78800        2.41300
C          1.63600       -7.85700        3.43900
O          2.10300       -8.07200        4.77100
C          0.46600       -6.86300        3.40000
C          1.20400       -5.53700        3.34600
N          0.36000       -4.39400        2.89800
C          0.29400       -3.22700        3.69400
O          0.93800       -3.16700        4.74800
N         -0.48200       -2.18000        3.30800
C         -1.17300       -2.26500        2.17000
N         -1.91400       -1.21300        1.83400
C         -1.12800       -3.43600        1.33000
C         -0.35300       -4.46200        1.73000
P          1.24600       -8.75200        5.95000
O          2.14600       -9.57800        6.77200
O          0.05100       -9.38100        5.35500
O          0.78600       -7.47900        6.80600
C          1.72300       -6.74200        7.58600
C          1.05100       -5.69400        8.46000
O          0.47500       -4.65000        7.66400
C         -0.08300       -6.26100        9.32500
O         -0.01900       -5.69000       10.63500
C         -1.32500       -5.76900        8.58000
C         -0.85400       -4.41700        8.09700
N         -1.63900       -3.86600        6.98500
C         -1.89100       -4.44000        5.76000
N         -2.57300       -3.66600        4.95800
C         -2.79500       -2.50200        5.69800
C         -3.46600       -1.29100        5.35900
O         -4.00600       -0.99800        4.29200
N         -3.47500       -0.36900        6.39900
C         -2.89400       -0.58100        7.61600
N         -3.01100        0.42100        8.50100
N         -2.25000       -1.70000        7.94800
C         -2.23600       -2.61500        6.94500
H         -0.50000       13.02500       -1.53900
H          0.54500       13.51700       -3.53500
H         -1.04600       12.77300       -3.76200
H          0.61000       11.91000       -5.26900
H         -1.24100       10.32000       -3.93000
H          0.44100        8.28100       -3.65800
H          0.29000        9.35100       -2.35200
H          2.37800        9.30300       -4.53200
H          6.30900        7.83400        0.13000
H          5.38100        8.67700        1.28500
H          3.33200        9.86700        0.67700
H          1.84900       10.44800       -1.10400
H          1.46200        7.98800       -7.17600
H          0.15400        7.34800       -8.18300
H          1.90400        5.86000       -8.29400
H         -0.58800        4.91400       -7.50700
H          0.40000        3.17700       -5.75200
H         -0.05300        4.70100       -5.15300
H          2.66200        3.67900       -5.90400
H          1.07300        6.25600       -3.58200
H          6.61100        1.42000       -2.55500
H          5.91300        1.23700       -4.10000
H          4.12600        2.65700       -4.76900
H          2.67700        1.67300       -7.80700
H          2.00700        0.25500       -8.62400
H          3.44400       -0.43800       -6.92400
H          0.74700       -1.37800       -6.98300
H          0.97700       -1.89000       -4.33800
H          0.17100       -0.47600       -4.82900
H          3.03400       -0.83400       -3.98800
H          3.09100        1.33100       -0.17700
H         -0.55700        3.88900       -1.27100
H         -1.42600        2.77600       -2.29900
H         -0.38900        3.99100       -3.00700
H          0.31200        1.58400       -3.98700
H          3.98100       -3.87600       -4.56200
H          3.58500       -5.55500       -4.95700
H          4.37200       -5.54200       -2.80100
H          1.78000       -6.55700       -3.23200
H          1.00700       -5.81700       -0.77400
H          0.63400       -4.77700       -2.06500
H          2.92900       -4.64800       -0.12500
H          0.45100       -2.45900       -2.02600
H          0.29300        1.16100        1.17200
H          1.09000        1.45100        2.65100
H          3.71900       -2.02100        3.38600
H          3.84800       -7.22500        0.83400
H          3.39700       -8.79000        1.51700
H          3.62900       -7.14100        3.20200
H          1.36800       -8.82000        3.05800
H         -0.14100       -6.93800        4.27800
H         -0.21500       -7.01900        2.58900
H          1.54200       -5.23900        4.31700
H         -1.93600       -0.42000        2.41700
H         -2.44100       -1.22700        1.00200
H         -1.67000       -3.48600        0.45300
H         -0.29500       -5.31200        1.14800
H          2.40900       -6.25200        6.92700
H          2.22500       -7.43200        8.23100
H          1.83100       -5.32500        9.09200
H         -0.05500       -7.32300        9.45600
H         -0.04100       -4.72300       10.56700
H         -2.16700       -5.68100        9.23500
H         -1.66100       -6.42300        7.80300
H         -0.95100       -3.69500        8.88100
H         -1.57300       -5.38700        5.50100
H         -3.48800        1.24500        8.25100
H         -2.62000        0.33200        9.40000
H         -1.83000       -1.84700        8.82600
