189
seed-7_sample-4_model_chainA_pH74.pdb
O          1.57200       -6.37900       -9.22300
C          2.63900       -7.31200       -9.06700
C          3.50000       -7.00900       -7.84200
O          4.13500       -5.73900       -7.97800
C          2.68300       -6.97300       -6.54600
O          3.34700       -7.73400       -5.55000
C          2.61900       -5.49700       -6.21400
C          3.91600       -4.97200       -6.80100
N          3.84100       -3.53400       -7.14400
C          4.80500       -2.63600       -6.62800
O          5.71600       -3.05700       -5.90000
N          4.72700       -1.31700       -6.92300
C          3.73500       -0.88100       -7.70300
N          3.69600        0.42300       -7.96000
C          2.74400       -1.76900       -8.25200
C          2.83800       -3.07700       -7.95200
P          2.76700       -8.11000       -4.15000
O          3.15500       -9.49600       -3.79300
O          1.34000       -7.74500       -4.13300
O          3.56300       -7.09800       -3.19900
C          4.93700       -7.30300       -2.89000
C          5.42500       -6.42900       -1.75600
O          5.49100       -5.06400       -2.16100
C          4.51900       -6.49700       -0.51500
O          5.33900       -6.54700        0.65300
C          3.72600       -5.20200       -0.63800
C          4.70500       -4.25200       -1.29400
N          4.07400       -3.21300       -2.09700
C          3.27500       -3.39800       -3.20200
N          2.96800       -2.29200       -3.81200
C          3.59000       -1.29100       -3.06700
C          3.64600        0.11700       -3.25700
O          3.16000        0.76500       -4.17100
N          4.35500        0.77000       -2.26800
C          4.95100        0.14000       -1.21600
N          5.57900        0.93000       -0.34000
N          4.94400       -1.18200       -1.03500
C          4.25200       -1.84100       -1.99500
P          4.74800       -6.76500        2.10400
O          5.82200       -7.29100        2.96700
O          3.48800       -7.52200        1.99900
O          4.40000       -5.27400        2.56500
C          5.42200       -4.35100        2.89200
C          4.87400       -2.96400        3.17400
O          4.29900       -2.41000        1.99400
C          3.78700       -2.94100        4.26500
O          4.19300       -2.05000        5.29500
C          2.56800       -2.44900        3.47900
C          3.20500       -1.61000        2.39100
N          2.34100       -1.33200        1.22100
C          2.21000       -0.01600        0.76600
O          2.69600        0.94300        1.33500
N          1.48300        0.16300       -0.38700
C          0.88000       -0.82100       -1.11200
O          0.29400       -0.52600       -2.15000
C          1.00100       -2.18900       -0.56700
C          0.33100       -3.34100       -1.25300
C          1.73000       -2.36900        0.55600
P          3.35100       -1.84400        6.63200
O          4.28900       -1.44000        7.70200
O          2.48500       -3.01700        6.85600
O          2.41900       -0.59800        6.25000
C          2.95400        0.70900        6.18200
C          1.89800        1.76000        5.86700
O          1.48400        1.66300        4.49700
C          0.62800        1.64100        6.73100
O          0.41600        2.89000        7.37900
C         -0.44400        1.32000        5.68500
C          0.10700        1.96500        4.43300
N         -0.43600        1.43300        3.18400
C         -0.53100        0.11500        2.79100
N         -0.98200       -0.04300        1.57200
C         -1.20500        1.26200        1.13200
C         -1.66900        1.79600       -0.09400
N         -1.98100        1.04500       -1.14500
N         -1.80500        3.13000       -0.21700
C         -1.48400        3.88400        0.83100
N         -1.01300        3.50400        2.02600
C         -0.89000        2.17400        2.11500
P         -0.84000        3.14400        8.35900
O         -0.42700        4.15000        9.34800
O         -1.37400        1.85000        8.84200
O         -1.91300        3.80500        7.37100
C         -1.68100        5.08800        6.81400
C         -2.75500        5.47400        5.80100
O         -2.73700        4.57600        4.68800
C         -4.18100        5.45300        6.36900
O         -4.80600        6.70400        6.10000
C         -4.82800        4.30900        5.58500
C         -4.07800        4.37500        4.27300
N         -4.18600        3.14600        3.45000
C         -4.59900        3.25400        2.09900
O         -4.90300        4.35600        1.63300
N         -4.66800        2.14600        1.31600
C         -4.34000        0.96200        1.83400
N         -4.40700       -0.08700        1.02500
C         -3.93100        0.81200        3.21500
C         -3.86900        1.92400        3.96900
P         -6.25900        7.08400        6.61200
O         -6.33400        8.55100        6.76600
O         -6.58500        6.23200        7.77200
O         -7.18400        6.64200        5.37800
C         -7.28600        7.44100        4.21500
C         -8.30200        6.88700        3.22000
O         -7.79700        5.71400        2.56300
C         -9.63800        6.48900        3.86600
O        -10.72900        7.02500        3.13100
C         -9.60700        4.96600        3.74600
C         -8.86200        4.79100        2.44500
N         -8.37000        3.43200        2.21700
C         -7.73000        2.59400        3.10400
N         -7.41300        1.44000        2.57300
C         -7.87000        1.51900        1.25100
C         -7.81800        0.57800        0.17200
O         -7.32700       -0.55100        0.17200
N         -8.41100        1.04600       -0.99100
C         -8.98300        2.27600       -1.11200
N         -9.51700        2.55300       -2.31100
N         -9.03700        3.16400       -0.12200
C         -8.46400        2.73000        1.02700
H          1.05400       -6.60900      -10.01000
H          3.25700       -7.27600       -9.93900
H          2.20800       -8.28200       -8.93200
H          4.21900       -7.79900       -7.78500
H          1.70300       -7.39700       -6.62300
H          2.58200       -5.34000       -5.15600
H          1.74800       -5.01000       -6.60000
H          4.71000       -5.06300       -6.09000
H          4.37900        1.02000       -7.57900
H          2.98400        0.79100       -8.53100
H          1.98600       -1.41400       -8.85600
H          2.14700       -3.74100       -8.33500
H          5.51800       -7.08700       -3.76200
H          5.04700       -8.32100       -2.57900
H          6.39400       -6.80500       -1.50200
H          3.87900       -7.35200       -0.44600
H          3.43000       -4.84200        0.32500
H          2.82000       -5.31800       -1.19500
H          5.25900       -3.74400       -0.53200
H          2.95100       -4.32600       -3.51600
H          5.58500        1.90500       -0.47300
H          6.03600        0.53700        0.43800
H          5.39400       -1.63100       -0.28300
H          6.10700       -4.29100        2.07200
H          5.90700       -4.69900        3.78000
H          5.71200       -2.39300        3.51600
H          3.59200       -3.87000        4.75900
H          1.92200       -1.85900        4.09500
H          1.95100       -3.23900        3.10600
H          3.44500       -0.63500        2.76000
H          1.39000        1.08500       -0.71900
H         -0.19100       -2.98700       -2.11700
H         -0.36200       -3.80200       -0.58100
H          1.06900       -4.05700       -1.55100
H          1.83300       -3.32500        0.93100
H          3.70100        0.73400        5.41600
H          3.36500        0.94100        7.14300
H          2.36900        2.69700        6.07700
H          0.65200        0.90600        7.50800
H         -1.38700        1.74700        5.95600
H         -0.62900        0.27200        5.57600
H         -0.14200        3.00600        4.41300
H         -0.27000       -0.67500        3.40200
H         -1.89500        0.06600       -1.09300
H         -2.29900        1.46800       -1.97500
H         -1.61600        4.90000        0.70600
H         -0.73000        5.08500        6.32500
H         -1.70500        5.80300        7.61000
H         -2.51700        6.47700        5.51400
H         -4.24700        5.31000        7.42700
H         -5.87600        4.47600        5.44400
H         -4.76700        3.35900        6.07300
H         -4.47300        5.14100        3.63900
H         -4.68700        0.03100        0.08800
H         -4.17700       -0.98300        1.36100
H         -3.69600       -0.11400        3.60600
H         -3.57700        1.85200        4.95600
H         -6.32800        7.48300        3.74100
H         -7.61700        8.41400        4.51400
H         -8.46800        7.68700        2.53000
H         -9.75800        6.84400        4.86800
H        -10.67100        6.73300        2.20800
H        -10.59400        4.55700        3.69100
H         -9.15800        4.46800        4.58000
H         -9.49800        4.96200        1.60200
H         -7.52300        2.84900        4.08200
H         -9.47100        1.88800       -3.03600
H         -9.95500        3.42100       -2.46600
H         -9.45300        4.05100       -0.21500
