189
seed-1_sample-4_model_chainA_pH74.pdb
O         -9.08000        8.22400        4.40900
C         -8.87500        8.95400        5.62000
C         -7.52200        8.63700        6.27400
O         -7.48900        7.29000        6.73400
C         -6.34500        8.81800        5.31500
O         -5.48200        9.82200        5.83600
C         -5.70100        7.44100        5.25100
C         -6.18700        6.75900        6.50700
N         -6.23600        5.27300        6.36000
C         -5.33200        4.46100        7.08700
O         -4.48800        4.98500        7.82600
N         -5.38200        3.11200        6.97000
C         -6.29700        2.57200        6.16300
N         -6.31600        1.24100        6.08500
C         -7.22600        3.37500        5.40700
C         -7.16200        4.71100        5.53600
P         -4.32900       10.52000        5.01300
O         -3.97600       11.81400        5.64200
O         -4.68500       10.49300        3.58100
O         -3.13300        9.48400        5.26300
C         -2.49600        9.38200        6.53000
C         -1.35200        8.39400        6.52700
O         -1.84000        7.05600        6.46200
C         -0.39700        8.59800        5.34300
O          0.91300        8.80700        5.85500
C         -0.53400        7.28500        4.57700
C         -0.98600        6.29000        5.62300
N         -1.74500        5.16400        5.08400
C         -2.95700        5.23700        4.44100
N         -3.48900        4.07300        4.20400
C         -2.56900        3.15500        4.70900
C         -2.60700        1.73100        4.76700
O         -3.50800        0.98600        4.40400
N         -1.46800        1.18000        5.32500
C         -0.41500        1.91500        5.77900
N          0.61100        1.21000        6.26100
N         -0.37400        3.24800        5.77000
C         -1.47700        3.80900        5.22600
P          2.12300        9.27000        4.91200
O          3.16400        9.83900        5.78900
O          1.62300       10.07000        3.77800
O          2.65100        7.87300        4.34100
C          3.29300        6.92700        5.18400
C          3.49200        5.59700        4.49400
O          2.22600        4.99100        4.23800
C          4.20100        5.70900        3.14100
O          5.51900        5.19000        3.27200
C          3.30500        4.87200        2.22400
C          2.43800        4.08100        3.17700
N          1.14000        3.64300        2.60700
C          0.83800        2.28000        2.58700
O          1.60700        1.41700        2.95800
N         -0.40200        1.94200        2.11300
C         -1.35300        2.81200        1.65700
O         -2.43700        2.37600        1.28500
C         -0.97300        4.23800        1.66400
C         -1.91300        5.28100        1.14200
C          0.24200        4.57500        2.14300
P          6.59600        5.23500        2.08500
O          7.93600        5.26800        2.70500
O          6.22900        6.28800        1.11700
O          6.38800        3.80900        1.38500
C          6.78400        2.61300        2.03400
C          6.55500        1.37600        1.17500
O          5.15200        1.11900        1.05400
C          7.12900        1.50600       -0.24300
O          7.87400        0.32900       -0.53600
C          5.86400        1.64700       -1.09100
C          4.84200        0.85000       -0.30600
N          3.45400        1.25300       -0.54900
C          2.93800        2.53000       -0.58900
N          1.64000        2.57500       -0.73300
C          1.26700        1.23300       -0.79600
C          0.01600        0.59000       -0.93200
N         -1.13200        1.25000       -1.00400
N         -0.01900       -0.75600       -0.98500
C          1.13100       -1.41700       -0.90000
N          2.36500       -0.92800       -0.75100
C          2.37000        0.41200       -0.70100
P          8.62100        0.13300       -1.95800
O          9.71500       -0.81700       -1.72900
O          8.92100        1.44600       -2.56300
O          7.49500       -0.57400       -2.85200
C          7.07300       -1.89500       -2.58000
C          5.87000       -2.29400       -3.42400
O          4.74800       -1.45600       -3.11100
C          6.09200       -2.17000       -4.93800
O          6.03300       -3.45900       -5.53000
C          4.93400       -1.27800       -5.38700
C          3.92900       -1.43000       -4.26700
N          2.95700       -0.30900       -4.18600
C          1.57000       -0.57500       -4.27200
O          1.18100       -1.73500       -4.42900
N          0.67300        0.44000       -4.19500
C          1.11500        1.68600       -4.03600
N          0.20100        2.64300       -3.95900
C          2.52200        1.99600       -3.94900
C          3.39200        0.97500       -4.02700
P          6.27300       -3.73100       -7.09000
O          6.85300       -5.07800       -7.24000
O          6.99400       -2.58100       -7.67600
O          4.77600       -3.74800       -7.66000
C          3.91000       -4.83400       -7.39200
C          2.57800       -4.71800       -8.12400
O          1.77700       -3.67000       -7.56400
C          2.72900       -4.41600       -9.62300
O          1.91400       -5.29400      -10.38700
C          2.22800       -2.98300       -9.72400
C          1.19100       -2.92800       -8.62100
N          0.89300       -1.57000       -8.15600
C          1.78900       -0.60300       -7.75600
N          1.20700        0.49900       -7.35900
C         -0.16300        0.25300       -7.50900
C         -1.30000        1.06800       -7.23800
O         -1.31300        2.20900       -6.78100
N         -2.50300        0.45000       -7.54000
C         -2.60400       -0.81800       -8.03700
N         -3.84300       -1.25300       -8.27400
N         -1.55700       -1.59800       -8.29300
C         -0.36800       -1.00700       -8.00400
H         -9.94400        8.45600        4.03400
H         -9.65600        8.70400        6.30800
H         -8.88400        9.99600        5.37800
H         -7.42400        9.32800        7.08500
H         -6.61400        9.14600        4.33300
H         -4.63400        7.51900        5.24800
H         -5.95800        6.90400        4.36200
H         -5.52300        6.94000        7.32600
H         -5.67400        0.70800        6.60800
H         -6.97200        0.79100        5.50400
H         -7.92100        2.93500        4.78400
H         -7.81600        5.31200        5.01000
H         -3.21900        9.06700        7.25300
H         -2.09300       10.34400        6.76900
H         -0.81900        8.56400        7.43900
H         -0.60500        9.44000        4.71600
H          0.40500        6.99200        4.15500
H         -1.21900        7.35800        3.75800
H         -0.13900        5.85100        6.10800
H         -3.40200        6.12800        4.17200
H          0.57400        0.22600        6.26400
H          1.40500        1.67400        6.61300
H          0.38200        3.77000        6.12300
H          2.69100        6.77700        6.05600
H          4.25700        7.31400        5.44100
H          4.10100        5.01900        5.15800
H          4.32400        6.70200        2.76100
H          3.89200        4.21800        1.61300
H          2.73100        5.47300        1.55000
H          2.91300        3.16300        3.45500
H         -0.62900        0.98400        2.09900
H         -2.81700        4.81300        0.81100
H         -1.45600        5.79500        0.32200
H         -2.13800        5.98000        1.92000
H          0.50800        5.57200        2.16200
H          6.22100        2.51100        2.93800
H          7.83400        2.68200        2.22800
H          7.06400        0.57600        1.67100
H          7.80300        2.32100       -0.40500
H          6.00700        1.23400       -2.06800
H          5.57400        2.66400       -1.25300
H          4.89900       -0.18000       -0.59000
H          3.52400        3.37600       -0.51200
H         -1.13700        2.23400       -0.96800
H         -1.97900        0.75600       -1.09400
H          1.06100       -2.44500       -0.95700
H          6.80900       -1.96700       -1.54600
H          7.87900       -2.55600       -2.82000
H          5.70000       -3.32300       -3.18700
H          7.04100       -1.76200       -5.21500
H          4.52700       -1.61600       -6.31700
H          5.22600       -0.26200       -5.55500
H          3.31800       -2.29800       -4.40200
H         -0.75500        2.41700       -4.02000
H          0.47800        3.58000       -3.84100
H          2.84800        2.96800       -3.83100
H          4.40500        1.16500       -3.96600
H          3.72000       -4.86900       -6.34000
H          4.39200       -5.72500       -7.73700
H          2.11400       -5.67500       -8.00700
H          3.72500       -4.54300       -9.99300
H          0.99300       -5.21900      -10.09200
H          1.78800       -2.79200      -10.68000
H          3.00100       -2.25000       -9.62400
H          0.25500       -3.31200       -8.97100
H          2.81300       -0.73400       -7.76800
H         -4.61400       -0.67100       -8.08300
H         -3.98600       -2.15600       -8.64000
H         -1.63600       -2.51000       -8.65500
