189
seed-5_sample-1_model_chainA_pH74.pdb
O          2.85600      -10.65500       -3.99000
C          1.84400      -11.62400       -4.29100
C          0.43800      -11.03700       -4.08300
O          0.21600      -10.75300       -2.70400
C          0.23700       -9.73000       -4.85900
O         -0.91800       -9.84600       -5.67700
C          0.11000       -8.67300       -3.77600
C         -0.35400       -9.45400       -2.56700
N          0.10400       -8.82200       -1.29300
C         -0.83800       -8.39000       -0.32600
O         -2.05300       -8.51700       -0.54400
N         -0.41100       -7.82900        0.83300
C          0.90200       -7.69400        1.04400
N          1.27600       -7.14000        2.19600
C          1.88400       -8.11400        0.08100
C          1.44300       -8.67200       -1.06200
P         -1.30400       -8.84900       -6.82700
O         -2.05400       -9.57100       -7.87700
O         -0.09000       -8.10700       -7.20400
O         -2.29600       -7.84400       -6.06800
C         -3.63000       -8.21400       -5.74400
C         -4.45200       -7.06400       -5.20000
O         -4.02100       -6.70500       -3.89400
C         -4.37300       -5.81100       -6.08300
O         -5.68300       -5.26700       -6.23800
C         -3.44700       -4.92000       -5.26400
C         -3.78700       -5.30600       -3.83500
N         -2.71100       -5.04200       -2.88700
C         -1.43100       -5.53900       -2.93900
N         -0.72800       -5.26200       -1.87700
C         -1.58900       -4.52500       -1.06000
C         -1.40800       -3.97700        0.24100
O         -0.42800       -4.07000        0.96000
N         -2.51500       -3.27800        0.69900
C         -3.66500       -3.13400       -0.01300
N         -4.61800       -2.40600        0.56700
N         -3.86900       -3.66800       -1.21900
C         -2.79900       -4.35700       -1.68500
P         -5.99800       -4.03400       -7.19900
O         -7.44100       -4.07100       -7.51400
O         -5.03000       -4.01200       -8.31200
O         -5.70800       -2.76700       -6.26400
C         -6.59400       -2.40200       -5.21900
C         -6.05200       -1.26800       -4.37200
O         -4.90200       -1.69900       -3.65500
C         -5.64400       -0.02500       -5.18500
O         -6.36900        1.10000       -4.71000
C         -4.14100        0.05500       -4.90000
C         -4.05400       -0.57500       -3.52200
N         -2.68900       -0.98800       -3.11600
C         -2.21900       -0.60600       -1.85300
O         -2.84900        0.09100       -1.08400
N         -0.97400       -1.06100       -1.50300
C         -0.16000       -1.84200       -2.27700
O          0.92400       -2.20400       -1.82900
C         -0.68500       -2.19300       -3.61300
C          0.14100       -3.00000       -4.56600
C         -1.91500       -1.75700       -3.95500
P         -6.26100        2.54800       -5.37300
O         -7.54500        3.24400       -5.15500
O         -5.75200        2.41500       -6.75500
O         -5.12000        3.25500       -4.48500
C         -5.39800        3.74100       -3.18700
C         -4.20700        4.45400       -2.55800
O         -3.19600        3.51200       -2.19100
C         -3.54400        5.49400       -3.48400
O         -3.47900        6.74000       -2.80300
C         -2.16600        4.87000       -3.72100
C         -1.93400        4.10600       -2.43500
N         -0.91000        3.06700       -2.53900
C         -0.80900        2.06800       -3.48100
N          0.17900        1.23200       -3.26300
C          0.77200        1.71700       -2.09400
C          1.86300        1.27200       -1.31300
N          2.56300        0.17900       -1.59600
N          2.21500        1.98400       -0.22200
C          1.50900        3.07100        0.06900
N          0.45300        3.58200       -0.57600
C          0.12400        2.85000       -1.65200
P         -2.84200        8.04800       -3.46600
O         -3.50000        9.20600       -2.84900
O         -2.86300        7.92500       -4.94000
O         -1.31300        7.99700       -2.98100
C         -0.96600        8.25400       -1.63100
C          0.53000        8.10200       -1.38800
O          0.92700        6.74100       -1.57000
C          1.40200        8.95200       -2.32900
O          2.27800        9.76600       -1.56300
C          2.15500        7.87900       -3.12500
C          2.23500        6.75400       -2.11900
N          2.57300        5.44100       -2.72400
C          3.65200        4.68700       -2.20100
O          4.31500        5.13300       -1.25500
N          3.96700        3.48100       -2.74000
C          3.24500        3.01700       -3.76100
N          3.58200        1.82700       -4.24500
C          2.14300        3.76100       -4.32700
C          1.84800        4.95300       -3.77500
P          3.24900       10.83800       -2.22200
O          3.52700       11.89200       -1.22500
O          2.70300       11.23500       -3.53600
O          4.58600        9.97700       -2.46000
C          5.45200        9.65100       -1.38800
C          6.66700        8.84000       -1.83100
O          6.29900        7.49800       -2.19200
C          7.38900        9.43500       -3.05400
O          8.76700        9.61100       -2.77900
C          7.18000        8.35400       -4.11200
C          7.15200        7.10500       -3.25100
N          6.64800        5.91700       -3.94700
C          5.51600        5.80000       -4.72600
N          5.35600        4.59700       -5.21500
C          6.45000        3.86900       -4.72600
C          6.83500        2.50300       -4.91500
O          6.25200        1.63900       -5.56200
N          8.01700        2.17400       -4.26300
C          8.74300        3.05200       -3.50900
N          9.86400        2.55900       -2.97000
N          8.40000        4.32800       -3.32100
C          7.24700        4.67000       -3.95200
H          3.73200      -11.04800       -4.12900
H          1.96800      -12.47000       -3.64800
H          1.94400      -11.91300       -5.31600
H         -0.25100      -11.77300       -4.44100
H          1.03400       -9.48200       -5.52800
H         -0.61000       -7.93000       -4.05000
H          1.02400       -8.14400       -3.60300
H         -1.42300       -9.48300       -2.52200
H          0.59600       -6.85600        2.84900
H          2.23200       -7.01500        2.39500
H          2.89300       -7.99200        0.26000
H          2.12200       -8.99000       -1.77100
H         -3.59900       -8.98900       -5.00600
H         -4.09900       -8.54000       -6.64900
H         -5.46300       -7.41300       -5.18200
H         -4.01400       -5.96000       -7.08000
H         -3.65100       -3.88500       -5.44300
H         -2.41200       -5.05000       -5.50400
H         -4.62000       -4.73100       -3.48800
H         -1.06300       -6.07800       -3.73900
H         -4.46500       -2.01300        1.45700
H         -5.47600       -2.26100        0.10600
H         -4.71100       -3.57100       -1.71900
H         -6.75400       -3.25400       -4.59100
H         -7.50700       -2.06800       -5.66700
H         -6.85400       -0.99400       -3.71900
H         -5.85000       -0.06200       -6.23400
H         -3.80000        1.06900       -4.88700
H         -3.53300       -0.42700       -5.63700
H         -4.33200        0.11800       -2.75500
H         -0.63500       -0.80300       -0.61500
H          1.07600       -3.24500       -4.10800
H          0.31800       -2.43100       -5.45500
H         -0.38100       -3.90000       -4.81600
H         -2.29000       -2.01000       -4.88200
H         -5.67100        2.91500       -2.56400
H         -6.19300        4.45300       -3.27200
H         -4.60700        4.96300       -1.70600
H         -4.05600        5.69800       -4.40100
H         -1.41900        5.62300       -3.86500
H         -2.11700        4.25900       -4.59800
H         -1.57800        4.75300       -1.66100
H         -1.45100        1.98400       -4.28500
H          2.33200       -0.36300       -2.38500
H          3.31300       -0.08900       -1.01700
H          1.81600        3.59200        0.90500
H         -1.49000        7.56500       -1.00200
H         -1.23600        9.26500       -1.40700
H          0.68400        8.43700       -0.38400
H          0.86300        9.62800       -2.95900
H          3.12900        8.21700       -3.41100
H          1.68100        7.60700       -4.04500
H          3.01500        6.91000       -1.40300
H          4.33500        1.33000       -3.85000
H          3.07900        1.44200       -4.99800
H          1.60200        3.39200       -5.12500
H          1.06300        5.50700       -4.15100
H          4.90400        9.07900       -0.66800
H          5.81300       10.57000       -0.97600
H          7.32100        8.85800       -0.98400
H          7.02500       10.39700       -3.34700
H          9.15300        8.76400       -2.50600
H          7.98800        8.32900       -4.81300
H          6.30800        8.49200       -4.71600
H          8.12900        6.79900       -2.94100
H          4.86400        6.57900       -4.90400
H         10.10700        1.61600       -3.11600
H         10.44600        3.13900       -2.42800
H          8.92900        4.95800       -2.78000
