189
seed-1_sample-2_model_chainA_pH74.pdb
O         -4.15000        1.04400      -10.85200
C         -3.70800        2.19000      -11.54900
C         -2.79400        3.09200      -10.71200
O         -3.49100        3.62500       -9.59200
C         -1.55400        2.37400      -10.16900
O         -0.39800        3.13300      -10.48500
C         -1.82000        2.29300       -8.68100
C         -2.66300        3.52600       -8.44000
N         -3.48700        3.40900       -7.21000
C         -3.33000        4.34800       -6.16700
O         -2.52100        5.28100       -6.29500
N         -4.05600        4.22800       -5.02800
C         -4.91500        3.21500       -4.91100
N         -5.59800        3.12800       -3.77000
C         -5.10500        2.25000       -5.96200
C         -4.38000        2.38800       -7.08500
P          1.09500        2.70600      -10.26400
O          1.93500        3.17200      -11.39100
O          1.10400        1.27700       -9.91600
O          1.48400        3.55800       -8.96700
C          1.72500        4.95800       -9.03500
C          2.51200        5.48200       -7.85300
O          1.69800        5.50200       -6.67700
C          3.75800        4.64200       -7.54000
O          4.82300        5.51900       -7.18700
C          3.27200        3.77500       -6.38900
C          2.27000        4.67200       -5.67200
N          1.17900        3.94500       -5.03500
C          0.27500        3.11400       -5.65600
N         -0.68700        2.72000       -4.87200
C         -0.40900        3.31600       -3.64500
C         -1.11800        3.28400       -2.41600
O         -2.17600        2.72200       -2.17700
N         -0.49200        4.00300       -1.41200
C          0.67800        4.68000       -1.57600
N          1.14800        5.29700       -0.48600
N          1.34300        4.75200       -2.72700
C          0.74800        4.05400       -3.72200
P          6.32100        4.99300       -6.93500
O          7.23200        6.14600       -7.05800
O          6.56800        3.80100       -7.76000
O          6.26700        4.54500       -5.40000
C          6.19600        5.49900       -4.36100
C          5.97800        4.86000       -3.00700
O          4.69400        4.24700       -2.95200
C          7.01200        3.77400       -2.66100
O          7.70600        4.16900       -1.49100
C          6.12600        2.54300       -2.45300
C          4.80200        3.16000       -2.05300
N          3.62600        2.26900       -2.19800
C          2.75000        2.11300       -1.12300
O          2.93400        2.60900       -0.03300
N          1.64400        1.34100       -1.35000
C          1.32700        0.71900       -2.52400
O          0.28200        0.08400       -2.60700
C          2.29900        0.88400       -3.62000
C          2.08000        0.21300       -4.93800
C          3.38200        1.65300       -3.40000
P          8.91400        3.31700       -0.86700
O          9.80700        4.25000       -0.15100
O          9.48500        2.44700       -1.91200
O          8.15200        2.39800        0.20100
C          7.65200        2.94400        1.40500
C          7.01400        1.89200        2.30400
O          5.76800        1.45800        1.75200
C          7.88700        0.63500        2.49700
O          8.03000        0.40500        3.89000
C          7.05200       -0.44300        1.79400
C          5.64100        0.06700        1.99600
N          4.66100       -0.49300        1.06900
C          4.73800       -0.55400       -0.30700
N          3.65800       -1.02600       -0.87500
C          2.81000       -1.29500        0.20400
C          1.48900       -1.79600        0.28400
N          0.76400       -2.10300       -0.78000
N          0.93000       -1.96700        1.50000
C          1.64600       -1.64500        2.56200
N          2.88600       -1.15000        2.61800
C          3.41500       -0.98800        1.39700
P          8.90500       -0.82800        4.44800
O          9.36600       -0.45800        5.79300
O          9.89900       -1.24700        3.43900
O          7.81000       -1.98900        4.58200
C          6.78100       -1.90500        5.55300
C          5.76700       -3.03200        5.40400
O          5.09300       -2.92900        4.14600
C          6.38800       -4.43800        5.46300
O          5.74700       -5.18200        6.48400
C          6.07300       -4.99300        4.06700
C          4.79400       -4.25100        3.73200
N          4.42300       -4.28200        2.29400
C          3.12300       -4.69900        1.92500
O          2.31800       -5.03800        2.79700
N          2.76300       -4.73900        0.62000
C          3.64700       -4.37600       -0.30900
N          3.24500       -4.42500       -1.57200
C          4.98300       -3.94800        0.02400
C          5.31600       -3.91300        1.32600
P          6.17200       -6.67600        6.83500
O          5.94600       -6.87900        8.27700
O          7.51500       -6.95200        6.28200
O          5.09000       -7.52900        6.01100
C          3.73700       -7.59700        6.43600
C          2.89200       -8.52700        5.57400
O          2.68800       -7.97300        4.26700
C          3.51900       -9.92200        5.37100
O          2.54700      -10.93200        5.59400
C          3.91600       -9.87500        3.89600
C          2.79800       -9.02600        3.32500
N          3.07000       -8.48800        1.98800
C          4.18300       -7.80100        1.55100
N          4.09800       -7.43200        0.30100
C          2.85100       -7.90400       -0.12100
C          2.18600       -7.80900       -1.38200
O          2.58800       -7.25900       -2.40700
N          0.94500       -8.43000       -1.39200
C          0.39900       -9.06200       -0.31400
N         -0.80200       -9.61700       -0.51100
N          0.99700       -9.15400        0.87400
C          2.21500       -8.55300        0.90300
H         -4.72200        0.51500      -11.43000
H         -4.56500        2.75800      -11.84800
H         -3.13700        1.85100      -12.38800
H         -2.48100        3.86300      -11.38500
H         -1.38000        1.40300      -10.58400
H         -0.90900        2.33000       -8.12100
H         -2.29400        1.38300       -8.37800
H         -2.05300        4.39300       -8.29200
H         -5.45700        3.79500       -3.06000
H         -6.24300        2.39600       -3.63700
H         -5.77800        1.47500       -5.85600
H         -4.50100        1.71500       -7.85800
H          0.78300        5.46500       -9.06900
H          2.30900        5.13900       -9.91300
H          2.82300        6.46800       -8.12800
H          4.14200        4.04800       -8.34300
H          4.08100        3.51000       -5.74100
H          2.84700        2.84800       -6.71400
H          2.78600        5.20000       -4.89800
H          0.35200        2.83100       -6.64500
H          0.65300        5.24100        0.36300
H          1.98900        5.80700       -0.53300
H          2.17900        5.25900       -2.84200
H          5.38400        6.16600       -4.56100
H          7.13100        6.01900       -4.33000
H          6.07400        5.65800       -2.30100
H          7.77000        3.59400       -3.39500
H          6.51100        1.91500       -1.67700
H          6.06100        1.91200       -3.31500
H          4.79700        3.41000       -1.01300
H          1.01900        1.22300       -0.59800
H          1.16800       -0.34600       -4.90600
H          2.89700       -0.44700       -5.14200
H          2.01800        0.95300       -5.70900
H          4.05800        1.78500       -4.16900
H          6.91600        3.68300        1.16700
H          8.47800        3.36700        1.93700
H          6.88700        2.36900        3.25300
H          8.88100        0.68400        2.10500
H          7.18800       -1.40000        2.25200
H          7.31400       -0.58900        0.76700
H          5.27900       -0.20200        2.96600
H          5.57000       -0.25500       -0.83900
H          1.14200       -1.99000       -1.68200
H         -0.15300       -2.44400       -0.66900
H          1.18500       -1.79600        3.47300
H          6.27600       -0.96800        5.44200
H          7.23000       -1.98800        6.52100
H          5.10000       -2.91800        6.23300
H          7.43400       -4.46500        5.68700
H          5.91600       -6.05100        4.09300
H          6.85900       -4.85500        3.35400
H          3.94700       -4.69600        4.21100
H          2.33000       -4.71900       -1.78600
H          3.86100       -4.16700       -2.29500
H          5.65800       -3.67900       -0.70900
H          6.26100       -3.60200        1.60000
H          3.31600       -6.61400        6.39300
H          3.73200       -7.98800        7.43200
H          1.97200       -8.63100        6.11000
H          4.33200      -10.14000        6.03200
H          1.78400      -10.78000        5.01500
H          3.92900      -10.85200        3.46100
H          4.89900       -9.49200        3.71500
H          1.90800       -9.60400        3.18800
H          4.99900       -7.59900        2.15000
H         -1.23900       -9.54600       -1.39000
H         -1.24900      -10.09700        0.22300
H          0.59700       -9.61000        1.65000
