189
seed-2_sample-2_model_chainA_pH74.pdb
O         -9.24900        3.41200       -4.14000
C        -10.45800        2.76900       -3.78600
C        -10.21200        1.38800       -3.17700
O         -9.52400        0.55400       -4.10700
C         -9.36400        1.44300       -1.90000
O        -10.12300        0.89500       -0.82800
C         -8.12500        0.63700       -2.24000
C         -8.54800       -0.21600       -3.41200
N         -7.41000       -0.53500       -4.31400
C         -7.08500       -1.88800       -4.59900
O         -7.75600       -2.80500       -4.09700
N         -6.03900       -2.17900       -5.41200
C         -5.32800       -1.17300       -5.93300
N         -4.30900       -1.50900       -6.72300
C         -5.63100        0.20800       -5.66100
C         -6.67400        0.47600       -4.85600
P         -9.73000        0.96900        0.69700
O        -10.94200        0.94800        1.53800
O         -8.76400        2.06900        0.87800
O         -8.96000       -0.42500        0.86200
C         -9.66800       -1.65400        0.85700
C         -8.76600       -2.85500        1.06000
O         -7.95600       -3.06900       -0.09100
C         -7.83500       -2.70900        2.27300
O         -8.02600       -3.81100        3.14400
C         -6.45500       -2.69200        1.62400
C         -6.64500       -3.44100        0.32500
N         -5.68300       -3.06200       -0.70800
C         -5.57700       -1.82800       -1.30000
N         -4.72800       -1.79900       -2.29000
C         -4.22100       -3.09600       -2.36200
C         -3.27900       -3.68200       -3.25600
O         -2.71900       -3.15200       -4.20600
N         -3.00900       -5.00800       -2.97600
C         -3.58900       -5.70100       -1.95300
N         -3.19100       -6.96900       -1.81400
N         -4.50200       -5.18100       -1.12200
C         -4.77700       -3.87600       -1.38000
P         -7.39600       -3.83800        4.61600
O         -8.15100       -4.82800        5.40300
O         -7.27500       -2.46200        5.13900
O         -5.92200       -4.40200        4.35400
C         -5.70700       -5.76500        4.03800
C         -4.26100       -6.05100        3.67100
O         -3.93300       -5.40600        2.43700
C         -3.25000       -5.56800        4.72700
O         -2.45500       -6.66600        5.15900
C         -2.45400       -4.52100        3.94500
C         -2.57600       -5.01800        2.51700
N         -2.26300       -4.00400        1.47500
C         -1.39900       -4.34800        0.42400
O         -0.85500       -5.43000        0.33200
N         -1.17100       -3.37900       -0.52300
C         -1.70800       -2.12300       -0.52900
O         -1.43200       -1.36100       -1.44900
C         -2.60100       -1.79700        0.60600
C         -3.21800       -0.44400        0.71900
C         -2.83300       -2.75100        1.53400
P         -1.38800       -6.51200        6.33100
O         -1.22900       -7.83400        6.96000
O         -1.74000       -5.35900        7.18200
O         -0.04600       -6.14300        5.52800
C          0.67200       -7.13300        4.82600
C          1.95700       -6.60100        4.19700
O          1.65700       -5.76900        3.06600
C          2.81500       -5.75800        5.16000
O          4.11400       -6.33100        5.24400
C          2.81600       -4.38700        4.47900
C          2.62100       -4.73400        3.01700
N          2.10800       -3.62600        2.20900
C          0.99500       -2.85500        2.44800
N          0.74900       -1.97200        1.50800
C          1.77400       -2.17700        0.58500
C          2.08700       -1.56800       -0.65700
N          1.35100       -0.60800       -1.20400
N          3.18500       -1.97600       -1.32700
C          3.91600       -2.94500       -0.78600
N          3.71900       -3.60500        0.36200
C          2.62300       -3.17800        1.00500
P          5.24300       -5.69300        6.18200
O          6.15500       -6.78200        6.54400
O          4.62200       -4.90200        7.26600
O          6.01000       -4.68500        5.19800
C          6.81300       -5.18600        4.13900
C          7.37500       -4.06700        3.26600
O          6.30900       -3.36600        2.61400
C          8.18800       -3.02300        4.04800
O          9.47500       -2.88600        3.44700
C          7.34400       -1.75600        3.87900
C          6.68800       -1.99900        2.53600
N          5.49800       -1.14500        2.28500
C          5.42300       -0.38600        1.09300
O          6.34900       -0.42700        0.27700
N          4.33800        0.39300        0.85000
C          3.34900        0.42800        1.74300
N          2.30500        1.20000        1.45800
C          3.39700       -0.32900        2.97700
C          4.47700       -1.09700        3.19600
P         10.61000       -1.95100        4.06200
O         11.92200       -2.48100        3.63900
O         10.35000       -1.78000        5.50600
O         10.34900       -0.55000        3.32400
C         10.80500       -0.31100        2.00400
C         10.52200        1.11100        1.52800
O          9.12500        1.31300        1.26200
C         10.93300        2.19000        2.54800
O         11.77300        3.16400        1.94500
C          9.58900        2.81300        2.92700
C          8.80600        2.63700        1.64400
N          7.36100        2.80000        1.82200
C          6.55400        2.24200        2.79200
N          5.30100        2.58700        2.67500
C          5.26900        3.42900        1.55700
C          4.18700        4.12300        0.93100
O          2.99900        4.11800        1.25300
N          4.58600        4.87600       -0.16400
C          5.87600        4.95000       -0.61400
N          6.07300        5.73100       -1.67900
N          6.89700        4.31200       -0.04700
C          6.52600        3.57100        1.03000
H         -9.44500        4.28200       -4.52100
H        -11.06100        2.65800       -4.66300
H        -10.95200        3.37200       -3.05300
H        -11.17800        0.99700       -2.93600
H         -9.08600        2.42700       -1.58600
H         -7.83100        0.02600       -1.41200
H         -7.28300        1.25600       -2.46700
H         -8.92900       -1.15800       -3.07500
H         -4.11500       -2.45800       -6.89900
H         -3.75000       -0.80800       -7.13100
H         -5.06600        0.96800       -6.07100
H         -6.92000        1.45600       -4.64700
H        -10.16700       -1.75700       -0.08400
H        -10.35900       -1.63000        1.67300
H         -9.41900       -3.68500        1.23200
H         -8.00000       -1.84200        2.87800
H         -5.73800       -3.18600        2.24500
H         -6.08600       -1.69900        1.47400
H         -6.50400       -4.49200        0.46900
H         -6.11600       -1.00400       -0.99200
H         -2.52000       -7.34400       -2.42800
H         -3.56900       -7.52800       -1.09700
H         -4.93000       -5.69300       -0.39800
H         -6.33100       -6.02900        3.21000
H         -5.94500       -6.34400        4.90600
H         -4.18700       -7.11600        3.59900
H         -3.67400       -5.16500        5.62300
H         -1.43200       -4.49700        4.26000
H         -2.81200       -3.52200        4.08200
H         -1.86800       -5.79600        2.32200
H         -0.56600       -3.61100       -1.26400
H         -2.91100        0.15900       -0.11000
H         -2.90200        0.01700        1.63100
H         -4.28400       -0.53700        0.71700
H         -3.46400       -2.53200        2.32100
H          0.04700       -7.52200        4.04900
H          0.94900       -7.88900        5.53000
H          2.51100       -7.47300        3.91800
H          2.45900       -5.70400        6.16800
H          3.74600       -3.88100        4.63400
H          2.06600       -3.72600        4.86000
H          3.55000       -4.99600        2.55600
H          0.40700       -2.96100        3.28900
H          0.54300       -0.28500       -0.74400
H          1.61300       -0.21900       -2.07000
H          4.75000       -3.22700       -1.32500
H          6.21700       -5.83200        3.53000
H          7.63800       -5.71300        4.57200
H          8.02500       -4.55200        2.56900
H          8.36400       -3.26400        5.07600
H          7.95700       -0.87900        3.86000
H          6.65100       -1.58700        4.67600
H          7.35000       -1.76200        1.72900
H          2.28500        1.70900        0.61600
H          1.55200        1.26200        2.08900
H          2.62800       -0.28000        3.66400
H          4.53800       -1.65700        4.06100
H         10.31500       -0.99600        1.34400
H         11.86600       -0.44600        2.00100
H         11.10900        1.21300        0.63900
H         11.48300        1.80100        3.37900
H         11.32000        3.55200        1.18000
H          9.69500        3.84700        3.18200
H          9.12800        2.37000        3.78500
H          9.06000        3.37700        0.91400
H          6.90500        1.61600        3.53400
H          5.31300        6.20000       -2.09300
H          6.97900        5.83800       -2.05000
H          7.82400        4.37100       -0.37400
