189
seed-5_sample-4_model_chainA_pH74.pdb
O         10.65000       -1.57000       -5.35100
C         11.56500       -0.49100       -5.29600
C         11.07800        0.69400       -4.44400
O          9.90600        1.27000       -5.00800
C         10.72700        0.29800       -3.00000
O         11.63200        0.94400       -2.11000
C          9.28500        0.76800       -2.83500
C          9.11600        1.78700       -3.93900
N          7.70200        1.94200       -4.36900
C          7.06200        3.19400       -4.25900
O          7.67700        4.15600       -3.77400
N          5.78200        3.34100       -4.67500
C          5.14100        2.28300       -5.18400
N          3.88900        2.47200       -5.58800
C          5.76500        0.99000       -5.29700
C          7.03500        0.86600       -4.88300
P         11.76000        0.61900       -0.56000
O         13.13700        0.92300       -0.10200
O         11.21400       -0.73000       -0.32300
O         10.75300        1.70100        0.07500
C         11.12200        3.06300        0.22900
C         10.11100        3.87100        1.02200
O          8.91100        4.05200        0.27500
C          9.73600        3.22000        2.37000
O          9.80000        4.22100        3.38800
C          8.32400        2.71800        2.09400
C          7.78900        3.74000        1.09400
N          6.71300        3.24000        0.24900
C          6.72900        2.10600       -0.52500
N          5.68300        1.99000       -1.29600
C          4.90800        3.12000       -1.01300
C          3.67100        3.57100       -1.55800
O          3.01600        3.05400       -2.44700
N          3.21800        4.74800       -0.98400
C          3.88100        5.41600       -0.00100
N          3.28700        6.52200        0.45400
N          5.05300        5.03100        0.50300
C          5.51500        3.88400       -0.04700
P          9.49700        3.92200        4.93900
O         10.18600        4.95500        5.73700
O          9.75100        2.50200        5.23800
O          7.91700        4.18400        5.03100
C          7.37000        5.48200        4.88200
C          5.85800        5.47700        4.83500
O          5.40200        4.78200        3.68100
C          5.20700        4.80700        6.06000
O          4.36300        5.75300        6.70000
C          4.44400        3.64700        5.41900
C          4.17000        4.17600        4.02700
N          3.80200        3.13800        3.02700
C          2.63800        3.31100        2.27200
O          1.86800        4.23000        2.43900
N          2.38800        2.36900        1.31000
C          3.16500        1.28300        1.03400
O          2.84000        0.53400        0.12300
C          4.36500        1.12300        1.87900
C          5.27400       -0.05000        1.70000
C          4.62400        2.05800        2.81700
P          3.58800        5.44100        8.06800
O          3.37600        6.72800        8.76600
O          4.27100        4.34400        8.78000
O          2.17300        4.89000        7.53000
C          1.18900        5.76500        7.02700
C         -0.11500        5.06800        6.67200
O          0.04100        4.29400        5.47700
C         -0.62600        4.11100        7.76900
O         -1.92100        4.52500        8.17300
C         -0.62700        2.75500        7.05400
C         -0.77300        3.13700        5.59600
N         -0.28300        2.12200        4.66400
C          0.96100        1.53400        4.63800
N          1.14600        0.72900        3.62100
C         -0.06700        0.78800        2.92700
C         -0.52400        0.17700        1.73600
N          0.23100       -0.62400        1.00000
N         -1.78300        0.41700        1.32200
C         -2.53300        1.23100        2.05100
N         -2.21200        1.88300        3.17700
C         -0.95500        1.62300        3.56300
P         -2.75400        3.75100        9.31600
O         -3.64700        4.74500        9.93800
O         -1.84600        2.97500       10.18500
O         -3.63900        2.72800        8.45600
C         -4.68400        3.19400        7.61300
C         -5.32900        2.07100        6.81600
O         -4.37700        1.49800        5.91700
C         -5.87400        0.92800        7.69400
O         -7.25500        0.75000        7.43400
C         -5.03700       -0.27100        7.23400
C         -4.66600        0.11000        5.81600
N         -3.48400       -0.61500        5.29500
C         -3.57400       -1.31800        4.06700
O         -4.64600       -1.35000        3.45400
N         -2.48900       -1.95700        3.56500
C         -1.34300       -1.91500        4.23900
N         -0.30400       -2.54200        3.70400
C         -1.21400       -1.22200        5.50100
C         -2.30100       -0.59100        5.97700
P         -8.17300       -0.26800        8.26100
O         -9.55600        0.25300        8.26400
O         -7.53200       -0.57000        9.55700
O         -8.10800       -1.57200        7.32400
C         -8.84000       -1.64200        6.11000
C         -8.67900       -2.97900        5.39500
O         -7.34600       -3.12300        4.87600
C         -8.93200       -4.19300        6.30500
O         -9.80400       -5.11700        5.66400
C         -7.53400       -4.78300        6.46100
C         -6.91500       -4.45100        5.11900
N         -5.44900       -4.51500        5.10300
C         -4.56200       -3.95400        6.00000
N         -3.31100       -4.17400        5.68800
C         -3.37200       -4.93200        4.51000
C         -2.33600       -5.47600        3.68300
O         -1.12100       -5.37200        3.83400
N         -2.81900       -6.18700        2.59900
C         -4.14500       -6.35400        2.32500
N         -4.41900       -7.08000        1.23900
N         -5.12900       -5.85400        3.07500
C         -4.67400       -5.15200        4.14800
H         11.01800       -2.27900       -5.90100
H         11.73500       -0.14200       -6.29300
H         12.45600       -0.86200       -4.83400
H         11.89500        1.38500       -4.43100
H         10.81100       -0.74800       -2.78900
H          9.13700        1.21600       -1.87500
H          8.57700       -0.03200       -2.89500
H          9.41500        2.76200       -3.61600
H          3.47400        3.36100       -5.50500
H          3.37700        1.72300       -5.97000
H          5.25100        0.18300       -5.68500
H          7.51100       -0.04700       -4.95300
H         11.22000        3.50100       -0.74200
H         12.04300        3.08300        0.77400
H         10.58600        4.80900        1.21800
H         10.37200        2.43000        2.71100
H          7.73600        2.71000        2.98800
H          8.29700        1.71300        1.72700
H          7.36900        4.57300        1.61900
H          7.49400        1.41300       -0.49900
H          2.42100        6.80500        0.08100
H          3.71500        7.05400        1.16300
H          5.53300        5.52900        1.20300
H          7.73900        5.90700        3.97200
H          7.66500        6.05700        5.73500
H          5.57100        6.50800        4.81800
H          5.87600        4.46500        6.82200
H          3.53400        3.44400        5.94300
H          4.98100        2.72200        5.42900
H          3.32200        4.82900        4.02400
H          1.57400        2.48600        0.76900
H          4.90200       -0.67300        0.91400
H          5.31600       -0.61100        2.61000
H          6.25500        0.29400        1.44800
H          5.47100        1.95800        3.39800
H          1.57200        6.23600        6.14600
H          0.96900        6.47100        7.80000
H         -0.82800        5.85600        6.54800
H         -0.04100        4.08300        8.66500
H         -1.44900        2.15100        7.37700
H          0.25000        2.17400        7.25100
H         -1.80500        3.27200        5.34800
H          1.68200        1.71100        5.35400
H          1.15600       -0.81900        1.27600
H         -0.13200       -1.02400        0.17700
H         -3.49300        1.38300        1.70500
H         -4.28000        3.91200        6.93000
H         -5.43800        3.62700        8.23700
H         -6.15000        2.52100        6.29800
H         -5.79900        1.09400        8.74800
H         -5.61100       -1.17300        7.25400
H         -4.19000       -0.46300        7.85900
H         -5.45300       -0.13500        5.13400
H         -0.40200       -3.01100        2.84400
H          0.56500       -2.53800        4.16700
H         -0.32000       -1.21200        6.01700
H         -2.24100       -0.08000        6.87200
H         -8.49800       -0.86400        5.46000
H         -9.87600       -1.53100        6.35300
H         -9.41100       -2.96500        4.61500
H         -9.39600       -3.94800        7.23700
H         -9.42900       -5.37500        4.80700
H         -7.57200       -5.84000        6.62300
H         -6.99000       -4.40000        7.29900
H         -7.21700       -5.16100        4.37800
H         -4.85600       -3.41700        6.83100
H         -3.68600       -7.44400        0.69300
H         -5.35400       -7.25100        0.98400
H         -6.08400       -5.98000        2.87300
