189
seed-10_sample-4_model_chainA_pH74.pdb
O          4.16900       -7.15000        9.60800
C          5.49700       -7.19000       10.12000
C          6.46700       -6.30900        9.32900
O          6.60500       -6.79400        7.99300
C          6.01900       -4.84700        9.23100
O          7.09200       -3.98700        9.58100
C          5.62300       -4.69800        7.77900
C          6.52900       -5.69300        7.09200
N          5.98400       -6.12500        5.78700
C          6.63600       -5.74500        4.59600
O          7.67300       -5.06600        4.65200
N          6.12400       -6.12100        3.39700
C          5.00700       -6.85300        3.36300
N          4.53800       -7.19500        2.16400
C          4.32700       -7.25900        4.55700
C          4.84800       -6.87700        5.73600
P          6.97900       -2.44700        9.80300
O          8.00700       -2.00200       10.76600
O          5.55900       -2.15400       10.08200
O          7.34000       -1.86000        8.35400
C          8.68300       -1.79100        7.89700
C          8.83300       -0.87000        6.70600
O          8.27900       -1.47100        5.53600
C          8.14300        0.48200        6.89500
O          9.00500        1.51300        6.41100
C          6.88700        0.32500        6.05000
C          7.34800       -0.58500        4.93000
N          6.28400       -1.38800        4.33800
C          5.49200       -2.30400        4.98600
N          4.70100       -2.96200        4.18800
C          4.97700       -2.45000        2.92500
C          4.45300       -2.79100        1.65300
O          3.62800       -3.65800        1.39000
N          4.98000       -2.02300        0.62700
C          5.91400       -1.04900        0.80500
N          6.29400       -0.39100       -0.29700
N          6.44100       -0.73400        1.98600
C          5.93400       -1.47100        3.00300
P          8.65000        3.05100        6.61000
O          9.91300        3.80600        6.53900
O          7.78400        3.20300        7.79500
O          7.78400        3.38900        5.30700
C          8.39600        3.48300        4.03200
C          7.37600        3.72300        2.93900
O          6.53500        2.57800        2.80600
C          6.46400        4.92900        3.19000
O          6.57200        5.82100        2.08700
C          5.08000        4.29100        3.30000
C          5.23500        3.02500        2.48600
N          4.27700        1.94700        2.79800
C          3.61000        1.32300        1.74900
O          3.72900        1.66200        0.58800
N          2.78900        0.28400        2.09600
C          2.56700       -0.18300        3.36300
O          1.82400       -1.14100        3.53200
C          3.27200        0.52800        4.43300
C          3.07900        0.13200        5.86100
C          4.08800        1.53800        4.09600
P          5.78400        7.20800        2.05600
O          6.59100        8.17000        1.28000
O          5.36900        7.56600        3.42800
O          4.47500        6.83000        1.21100
C          4.55700        6.61900       -0.18800
C          3.18700        6.43300       -0.82100
O          2.66900        5.13200       -0.51000
C          2.14300        7.46100       -0.35900
O          1.53700        8.05000       -1.50400
C          1.17100        6.60700        0.45200
C          1.29600        5.24100       -0.19800
N          0.93800        4.13200        0.68200
C          1.33400        3.93100        1.98200
N          0.89200        2.81600        2.50500
C          0.15300        2.24100        1.47200
C         -0.57900        1.04000        1.37900
N         -0.67100        0.16500        2.37700
N         -1.21600        0.76200        0.22300
C         -1.11800        1.63200       -0.77500
N         -0.45700        2.78900       -0.81000
C          0.16500        3.03800        0.35100
P          0.37600        9.14600       -1.35000
O          0.47200       10.04200       -2.51000
O          0.40700        9.72700        0.01000
O         -0.95300        8.26700       -1.49000
C         -1.27400        7.63500       -2.72500
C         -2.48500        6.72400       -2.58100
O         -2.20900        5.69000       -1.62500
C         -3.74600        7.44800       -2.11000
O         -4.83400        7.11500       -2.96300
C         -3.94100        6.89200       -0.69700
C         -3.35900        5.49700       -0.83100
N         -2.98600        4.87700        0.46300
C         -3.42800        3.57300        0.76100
O         -4.10400        2.95500       -0.06800
N         -3.12000        3.01200        1.95600
C         -2.38900        3.69800        2.83500
N         -2.12100        3.11100        3.99400
C         -1.90900        5.02000        2.55900
C         -2.22800        5.55900        1.37100
P         -6.31900        7.63900       -2.74100
O         -6.90500        7.91200       -4.06400
O         -6.29000        8.71700       -1.73400
O         -7.04100        6.35600       -2.11100
C         -7.24400        5.18600       -2.89100
C         -8.07500        4.14800       -2.15600
O         -7.34800        3.61200       -1.04100
C         -9.38800        4.70300       -1.59700
O        -10.43500        3.76200       -1.81200
C         -9.07500        4.82700       -0.10800
C         -8.18300        3.62700        0.10300
N         -7.34600        3.71300        1.29900
C         -6.43700        4.69500        1.62100
N         -5.81300        4.46700        2.74100
C         -6.33900        3.25500        3.19600
C         -6.04900        2.49000        4.35900
O         -5.22700        2.74000        5.24200
N         -6.80800        1.33300        4.44500
C         -7.73700        0.95400        3.51900
N         -8.38100       -0.19400        3.77200
N         -8.02100        1.65200        2.42300
C         -7.28500        2.78600        2.32300
H          3.59900       -7.72300       10.14400
H          5.84700       -8.20100       10.08400
H          5.46600       -6.81500       11.12200
H          7.39100       -6.35200        9.86700
H          5.21700       -4.59300        9.89300
H          5.80400       -3.70300        7.42800
H          4.58300       -4.87200        7.60000
H          7.48700       -5.26700        6.87800
H          5.01300       -6.91100        1.35000
H          3.71600       -7.73200        2.09200
H          3.46600       -7.82600        4.51300
H          4.38200       -7.15700        6.61300
H          9.00300       -2.77300        7.61600
H          9.28200       -1.40000        8.69300
H          9.88500       -0.70600        6.60400
H          7.91500        0.74600        7.90700
H          6.55800        1.26900        5.66900
H          6.05400       -0.06500        6.59700
H          7.74300        0.01400        4.13600
H          5.52100       -2.45600        6.00600
H          5.90300       -0.62500       -1.17000
H          6.96400        0.32700       -0.23500
H          7.12700       -0.03800        2.10800
H          8.91500        2.57000        3.82800
H          9.07200        4.31200        4.04600
H          7.94600        3.91700        2.05500
H          6.69900        5.50800        4.05900
H          4.32700        4.92800        2.88500
H          4.77200        4.11300        4.30900
H          5.05600        3.24700        1.45500
H          2.31300       -0.17100        1.36400
H          2.39400       -0.68900        5.91400
H          2.68500        0.96100        6.41100
H          4.01900       -0.16000        6.28000
H          4.59700        2.03100        4.84600
H          5.14300        5.74300       -0.37100
H          5.00700        7.48600       -0.62600
H          3.34400        6.56300       -1.87100
H          2.52700        8.27700        0.21700
H          0.17200        6.98100        0.37300
H          1.38900        6.59800        1.50000
H          0.63100        5.17600       -1.03400
H          1.92700        4.59900        2.49900
H         -0.21600        0.34300        3.23200
H         -1.19400       -0.66100        2.26100
H         -1.62100        1.37900       -1.64000
H         -0.43600        7.05300       -3.04700
H         -1.50500        8.39400       -3.44300
H         -2.66600        6.33300       -3.56000
H         -3.67900        8.51600       -2.12500
H         -4.97700        6.85800       -0.43100
H         -3.48200        7.48200        0.06900
H         -4.07900        4.82500       -1.25000
H         -2.45500        2.20300        4.17500
H         -1.58800        3.58400        4.67400
H         -1.34000        5.53800        3.24700
H         -1.89400        6.50800        1.14000
H         -6.29200        4.76000       -3.12900
H         -7.77500        5.46700       -3.77600
H         -8.29300        3.40000       -2.88900
H         -9.70700        5.62100       -2.04500
H        -10.18900        2.90900       -1.42100
H         -9.96300        4.76500        0.48600
H         -8.63100        5.76000        0.17200
H         -8.77800        2.74800        0.23800
H         -6.26700        5.52700        1.03500
H         -8.16900       -0.70900        4.58400
H         -9.06600       -0.52200        3.14600
H         -8.69200        1.37600        1.75800
