189
seed-6_sample-1_model_chainA_pH74.pdb
O          2.24800        5.13500       10.89500
C          1.46900        4.89100       12.06300
C          0.33000        3.88900       11.82300
O         -0.55700        4.36200       10.81000
C          0.82900        2.51100       11.37400
O          0.16200        1.51400       12.13300
C          0.46100        2.47500        9.90400
C         -0.81000        3.30600        9.89100
N         -1.13600        3.84500        8.54800
C         -2.31300        3.41900        7.89000
O         -3.05800        2.58600        8.43100
N         -2.62000        3.91400        6.66500
C         -1.80200        4.80300        6.10200
N         -2.14800        5.26200        4.90100
C         -0.59700        5.25300        6.74600
C         -0.30900        4.75500        7.95800
P          0.55600        0.00700       12.16700
O          0.25700       -0.56500       13.49700
O          1.92700       -0.10300       11.63800
O         -0.45400       -0.63400       11.08900
C         -1.79100       -0.94200       11.43700
C         -2.47600       -1.82100       10.41600
O         -2.78900       -1.09400        9.23700
C         -1.63300       -3.03900        9.99700
O         -2.48400       -4.18500        9.96400
C         -1.14600       -2.62000        8.61500
C         -2.30600       -1.78900        8.09500
N         -1.93300       -0.80500        7.08700
C         -1.02400        0.20900        7.23200
N         -1.00900        1.04200        6.22900
C         -1.97000        0.54700        5.35200
C         -2.43600        1.04100        4.10500
O         -2.09800        2.06800        3.53500
N         -3.39700        0.23100        3.52200
C         -3.86000       -0.92100        4.07900
N         -4.77300       -1.58700        3.36300
N         -3.46400       -1.38400        5.26500
C         -2.52300       -0.60700        5.85100
P         -1.91100       -5.63500        9.65200
O         -2.87800       -6.61200       10.18100
O         -0.50800       -5.71100       10.09800
O         -1.93200       -5.71100        8.05200
C         -3.14100       -5.89200        7.34200
C         -2.94200       -5.83400        5.83900
O         -2.54400       -4.52600        5.44200
C         -1.86800       -6.81100        5.31800
O         -2.47600       -7.71200        4.40300
C         -0.87200       -5.85900        4.64700
C         -1.74600       -4.67900        4.28400
N         -1.01500       -3.42200        4.00400
C         -1.29700       -2.72400        2.83000
O         -2.05800       -3.12600        1.97600
N         -0.65100       -1.52600        2.66800
C          0.23800       -0.96900        3.54200
O          0.72400        0.11900        3.29000
C          0.53000       -1.76000        4.75000
C          1.52500       -1.26700        5.75200
C         -0.11700       -2.93000        4.91900
P         -1.66900       -8.88600        3.69400
O         -2.61500       -9.98100        3.39300
O         -0.46500       -9.18600        4.49100
O         -1.20400       -8.20500        2.31200
C         -2.12200       -8.01700        1.25400
C         -1.46700       -7.44500        0.00300
O         -1.09800       -6.07700        0.20900
C         -0.19400       -8.19900       -0.42800
O         -0.34600       -8.57200       -1.79300
C          0.89500       -7.14200       -0.21600
C          0.14200       -5.84300       -0.43200
N          0.76800       -4.67200        0.17500
C          1.22900       -4.53300        1.46600
N          1.65200       -3.33000        1.75100
C          1.45600       -2.62200        0.56400
C          1.68500       -1.27800        0.20000
N          2.16100       -0.37200        1.03900
N          1.40900       -0.88800       -1.06100
C          0.92600       -1.79000       -1.89800
N          0.65100       -3.07600       -1.67000
C          0.93200       -3.43500       -0.41100
P          0.78500       -9.39900       -2.57400
O          0.12700      -10.09400       -3.68700
O          1.58200      -10.18900       -1.60500
O          1.72100       -8.24000       -3.16100
C          1.27100       -7.42400       -4.22600
C          2.23300       -6.28000       -4.52500
O          2.33100       -5.39900       -3.39100
C          3.66800       -6.73000       -4.84700
O          3.99700       -6.31200       -6.16400
C          4.50000       -5.98600       -3.79400
C          3.61400       -4.80100       -3.46100
N          3.95500       -4.13500       -2.17500
C          4.21200       -2.74500       -2.15800
O          4.14900       -2.09700       -3.20200
N          4.54100       -2.12600       -0.99700
C          4.60800       -2.84500        0.12400
N          4.92600       -2.19500        1.23400
C          4.35400       -4.26200        0.14700
C          4.03200       -4.85400       -1.01700
P          5.41600       -6.56600       -6.84700
O          5.19600       -6.78100       -8.29000
O          6.14600       -7.59500       -6.07900
O          6.12700       -5.14800       -6.63300
C          5.68000       -3.99500       -7.33400
C          6.50500       -2.75200       -7.02100
O          6.33300       -2.33900       -5.66000
C          8.01200       -2.94600       -7.23100
O          8.54900       -1.82700       -7.92700
C          8.53100       -2.97300       -5.80000
C          7.59800       -1.98600       -5.13700
N          7.59000       -2.07500       -3.67800
C          7.32600       -3.18100       -2.90000
N          7.35500       -2.92200       -1.62000
C          7.66500       -1.56000       -1.54300
C          7.82700       -0.69700       -0.42000
O          7.70700       -0.97800        0.76600
N          8.15100        0.60200       -0.77500
C          8.28900        1.03000       -2.06000
N          8.62100        2.31800       -2.21200
N          8.13400        0.24500       -3.12300
C          7.82000       -1.03300       -2.79700
H          2.95000        5.77200       11.10200
H          1.04500        5.81700       12.39100
H          2.11900        4.46800       12.80000
H         -0.16600        3.79400       12.76600
H          1.87500        2.33700       11.51700
H          0.27800        1.47500        9.57100
H          1.22800        2.83900        9.25300
H         -1.65800        2.71000       10.15800
H         -2.97600        4.94500        4.47300
H         -1.57600        5.91900        4.44100
H          0.02600        5.93700        6.29000
H          0.54500        5.06300        8.44800
H         -2.34000       -0.02800       11.52400
H         -1.76700       -1.48100       12.36100
H         -3.36500       -2.16500       10.90200
H         -0.82200       -3.29800       10.64500
H         -0.97100       -3.47200        7.99200
H         -0.21600       -2.09000        8.63300
H         -3.01600       -2.43400        7.62100
H         -0.41000        0.30500        8.05600
H         -5.06100       -1.24000        2.48800
H         -5.15700       -2.42400        3.71100
H         -3.81900       -2.20700        5.67300
H         -3.82600       -5.12200        7.62800
H         -3.52000       -6.86300        7.58400
H         -3.88700       -6.11100        5.42000
H         -1.39800       -7.42600        6.05600
H         -0.43900       -6.30300        3.77500
H         -0.04100       -5.60100        5.27000
H         -2.27700       -4.86400        3.37400
H         -0.84600       -1.02100        1.84600
H          1.92000       -0.32600        5.43000
H          2.32100       -1.97600        5.84200
H          1.04600       -1.14600        6.70100
H          0.07000       -3.48000        5.77200
H         -2.88600       -7.34200        1.57900
H         -2.52300       -8.97600        1.00000
H         -2.20200       -7.54700       -0.76800
H          0.02500       -9.10100        0.10400
H          1.68500       -7.25300       -0.92900
H          1.36900       -7.20500        0.74100
H          0.09100       -5.61600       -1.47600
H          1.23900       -5.30900        2.14600
H          2.37300       -0.62400        1.96700
H          2.30300        0.55400        0.73500
H          0.73600       -1.45500       -2.85600
H          0.31800       -7.01300       -3.96600
H          1.20700       -8.03500       -5.10200
H          1.82100       -5.80000       -5.38800
H          3.82500       -7.78800       -4.81600
H          5.43900       -5.66700       -4.19600
H          4.75100       -6.58600       -2.94400
H          3.70900       -4.01600       -4.18200
H          5.09700       -1.22600        1.20500
H          4.99100       -2.68100        2.08800
H          4.41700       -4.80300        1.02400
H          3.84000       -5.86800       -1.03500
H          4.66200       -3.80500       -7.06500
H          5.78500       -4.19500       -8.38000
H          6.14300       -2.01500       -7.70700
H          8.26800       -3.81400       -7.80100
H          8.33900       -1.01300       -7.44200
H          9.54900       -2.64900       -5.74500
H          8.53700       -3.94400       -5.35100
H          7.89400       -0.97700       -5.33500
H          7.12600       -4.11600       -3.28800
H          8.73400        2.89400       -1.42100
H          8.75200        2.68900       -3.11400
H          8.23700        0.56000       -4.05000
