189
seed-6_sample-2_model_chainA_pH74.pdb
O         -5.19700        0.84300        6.68200
C         -6.38400        0.09000        6.87600
C         -6.57900       -0.98400        5.79800
O         -6.65200       -0.38700        4.51200
C         -5.42600       -1.98800        5.74500
O         -5.92300       -3.26200        6.11000
C         -4.95200       -1.93500        4.30600
C         -6.12100       -1.31700        3.58100
N         -5.70600       -0.62500        2.33600
C         -6.27300       -1.00100        1.10200
O         -7.11800       -1.91100        1.06000
N         -5.89400       -0.37700       -0.03400
C         -4.97900        0.59100        0.03200
N         -4.64000        1.17400       -1.11500
C         -4.38000        0.99400        1.27500
C         -4.77400        0.36900        2.38900
P         -4.98200       -4.52100        6.40100
O         -5.64400       -5.42100        7.36400
O         -3.62900       -4.02800        6.70500
O         -4.94600       -5.22900        4.96600
C         -6.03800       -5.99900        4.49200
C         -5.68500       -6.85000        3.28800
O         -5.59900       -6.03600        2.11700
C         -4.35500       -7.59500        3.44400
O         -4.52000       -8.93500        2.98800
C         -3.42700       -6.77200        2.56300
C         -4.35000       -6.24700        1.47600
N         -3.92900       -4.97600        0.89700
C         -3.73200       -3.79900        1.57000
N         -3.50000       -2.78500        0.78500
C         -3.53500       -3.31800       -0.50000
C         -3.38200       -2.70000       -1.76700
O         -3.20200       -1.51200       -2.00500
N         -3.46200       -3.59300       -2.82200
C         -3.67800       -4.93000       -2.67000
N         -3.71200       -5.64500       -3.80100
N         -3.85400       -5.52700       -1.48900
C         -3.77400       -4.66700       -0.44600
P         -3.35900      -10.01700        3.20900
O         -3.97500      -11.34400        3.03900
O         -2.62800       -9.72700        4.45500
O         -2.36800       -9.74800        1.98100
C         -2.71000      -10.15100        0.67500
C         -1.72400       -9.65000       -0.36000
O         -1.81400       -8.23000       -0.48200
C         -0.25900       -9.98300       -0.04200
O          0.29200      -10.72200       -1.12100
C          0.36000       -8.59200        0.11300
C         -0.52500       -7.75700       -0.79400
N         -0.44400       -6.29100       -0.58300
C         -0.32100       -5.46100       -1.69900
O         -0.25300       -5.87500       -2.83600
N         -0.26900       -4.11200       -1.45100
C         -0.32500       -3.52100       -0.22500
O         -0.27600       -2.30400       -0.14500
C         -0.44500       -4.43900        0.92300
C         -0.47800       -3.90800        2.31700
C         -0.50500       -5.76300        0.68100
P          1.78000      -11.27000       -1.10100
O          1.81800      -12.49700       -1.92000
O          2.27200      -11.32600        0.28900
O          2.56800      -10.10200       -1.86900
C          2.47600       -9.96200       -3.27000
C          3.43300       -8.91100       -3.81900
O          2.94500       -7.59200       -3.54000
C          4.85100       -9.00000       -3.23300
O          5.77700       -9.17000       -4.29600
C          5.00200       -7.64800       -2.52800
C          4.05300       -6.75100       -3.28600
N          3.59800       -5.59300       -2.52500
C          3.05000       -5.58100       -1.26300
N          2.67200       -4.39500       -0.86300
C          2.99300       -3.56400       -1.93800
C          2.83500       -2.17900       -2.15900
N          2.27000       -1.36400       -1.27900
N          3.27200       -1.65100       -3.32100
C          3.82600       -2.46700       -4.20700
N          4.01900       -3.78500       -4.12200
C          3.57300       -4.28100       -2.95800
P          7.34200       -9.35800       -4.01700
O          7.90200      -10.07000       -5.17400
O          7.54900       -9.90900       -2.65900
O          7.87800       -7.84900       -4.03300
C          7.91900       -7.11300       -5.24300
C          8.33600       -5.66500       -5.01300
O          7.35200       -4.98600       -4.22000
C          9.67800       -5.51300       -4.28300
O         10.54600       -4.70100       -5.06100
C          9.26500       -4.82900       -2.97500
C          8.03500       -4.05400       -3.40100
N          7.17100       -3.61300       -2.27600
C          6.76000       -2.26200       -2.20400
O          7.11800       -1.46200       -3.07500
N          5.98200       -1.84100       -1.17500
C          5.60300       -2.71700       -0.24500
N          4.83900       -2.26300        0.74000
C          6.00100       -4.10400       -0.28200
C          6.77400       -4.49800       -1.31100
P         12.05300       -4.39200       -4.63700
O         12.83500       -4.15400       -5.86600
O         12.51400       -5.42900       -3.68900
O         11.89400       -3.00800       -3.84800
C         11.67600       -1.78800       -4.54500
C         11.63000       -0.59200       -3.60900
O         10.42700       -0.59200       -2.82100
C         12.80500       -0.54500       -2.61600
O         13.42900        0.72700       -2.67100
C         12.10400       -0.75400       -1.27300
C         10.75400       -0.12300       -1.52800
N          9.72500       -0.50500       -0.55900
C          9.38800       -1.77300       -0.12800
N          8.41000       -1.77600        0.73100
C          8.07000       -0.42600        0.88600
C          7.07700        0.20900        1.68800
O          6.26500       -0.32100        2.43800
N          7.07700        1.59000        1.56200
C          7.92100        2.28400        0.75200
N          7.78500        3.61200        0.76500
N          8.85300        1.71200       -0.01100
C          8.87300        0.36000        0.10200
H         -5.11700        1.50700        7.38500
H         -7.22100        0.75600        6.85300
H         -6.30400       -0.40700        7.82000
H         -7.48500       -1.49100        6.05800
H         -4.61900       -1.77500        6.41400
H         -4.74500       -2.91700        3.93400
H         -4.04300       -1.38400        4.18300
H         -6.82900       -2.05700        3.27100
H         -5.06000        0.88500       -1.95700
H         -3.96900        1.89400       -1.12200
H         -3.66900        1.74100        1.30600
H         -4.36900        0.64100        3.29800
H         -6.83100       -5.33400        4.21900
H         -6.32700       -6.66300        5.28000
H         -6.46700       -7.57500        3.20200
H         -3.98200       -7.68200        4.44300
H         -2.65300       -7.38200        2.14700
H         -2.92500       -5.99300        3.09700
H         -4.36700       -6.95200        0.67100
H         -3.76400       -3.72300        2.59900
H         -3.58200       -5.19900       -4.66900
H         -3.86700       -6.61600       -3.76500
H         -4.02400       -6.49100       -1.38700
H         -3.68000       -9.76700        0.44000
H         -2.69500      -11.22100        0.64900
H         -1.99400      -10.15200       -1.26500
H         -0.09800      -10.58900        0.82500
H          1.37800       -8.57900       -0.21600
H          0.39600       -8.24400        1.12400
H         -0.23000       -7.86600       -1.81700
H         -0.18300       -3.51700       -2.23100
H         -0.42000       -2.84000        2.29300
H          0.35300       -4.29800        2.86700
H         -1.39000       -4.20500        2.79000
H         -0.60100       -6.40700        1.48100
H          1.47500       -9.67800       -3.52100
H          2.74200      -10.90200       -3.70700
H          3.48400       -9.10400       -4.87000
H          5.02200       -9.81800       -2.56500
H          6.00700       -7.28900       -2.59900
H          4.78600       -7.69600       -1.48100
H          4.53200       -6.34600       -4.15300
H          2.94700       -6.43000       -0.68500
H          1.94100       -1.71800       -0.42100
H          2.18000       -0.40500       -1.48300
H          4.15200       -2.02300       -5.08000
H          6.94700       -7.12600       -5.68900
H          8.64400       -7.56900       -5.88400
H          8.43100       -5.24400       -5.99200
H         10.20800       -6.42700       -4.11400
H         10.03300       -4.17500       -2.61900
H          9.08900       -5.51000       -2.16900
H          8.30000       -3.13700       -3.88500
H          4.57100       -1.31600        0.75900
H          4.54000       -2.87300        1.45200
H          5.70500       -4.76700        0.45100
H          7.07200       -5.48400       -1.37300
H         10.74500       -1.85200       -5.06800
H         12.49400       -1.64500       -5.22000
H         11.67800        0.25800       -4.25700
H         13.57400       -1.26300       -2.80700
H         12.76900        1.41800       -2.50300
H         12.62300       -0.25600       -0.48100
H         12.05300       -1.77800       -0.96500
H         10.79700        0.94200       -1.43900
H          9.86300       -2.63000       -0.45300
H          7.09600        4.03100        1.33000
H          8.37400        4.17300        0.21000
H          9.46300        2.21800       -0.59500
