189
seed-7_sample-2_model_chainA_pH74.pdb
O         -1.64300       -6.04300       -8.58000
C         -2.18500       -5.61400       -9.81900
C         -2.60100       -4.14600       -9.77300
O         -3.62700       -3.95400       -8.80000
C         -1.44200       -3.21000       -9.40300
O         -1.41100       -2.10100      -10.29200
C         -1.77200       -2.80400       -7.97800
C         -3.29300       -2.82700       -7.99100
N         -3.86800       -2.97600       -6.63100
C         -4.63800       -1.92600       -6.07800
O         -4.83900       -0.89300       -6.74300
N         -5.14900       -2.04200       -4.82400
C         -4.92200       -3.16300       -4.13200
N         -5.43800       -3.22500       -2.89800
C         -4.15100       -4.25300       -4.67200
C         -3.64700       -4.11700       -5.91500
P         -0.21300       -1.06600      -10.40700
O         -0.10100       -0.57000      -11.79600
O          0.96100       -1.69200       -9.77800
O         -0.71300        0.14100       -9.47400
C         -1.69800        1.06700       -9.91900
C         -1.74600        2.32200       -9.07500
O         -2.35900        2.06400       -7.81500
C         -0.36400        2.93600       -8.80800
O         -0.46300        4.35300       -8.93400
C         -0.10000        2.47700       -7.38000
C         -1.49300        2.46300       -6.76200
N         -1.66500        1.51200       -5.66800
C         -1.54300        0.15100       -5.76700
N         -1.89000       -0.48400       -4.68300
C         -2.26300        0.51700       -3.79300
C         -2.75700        0.43500       -2.46600
O         -2.99100       -0.57600       -1.82000
N         -3.00100        1.67500       -1.90300
C         -2.79200        2.85600       -2.54900
N         -3.06100        3.95900       -1.83900
N         -2.35600        2.95700       -3.80500
C         -2.11100        1.75300       -4.37300
P          0.82200        5.32000       -8.81200
O          0.46900        6.62000       -9.41200
O          2.00400        4.60100       -9.31100
O          0.97500        5.52000       -7.23400
C          0.06000        6.30900       -6.49400
C          0.29700        6.20600       -4.99900
O          0.01400        4.88600       -4.54100
C          1.73800        6.53300       -4.57500
O          1.69500        7.58400       -3.61900
C          2.19900        5.19900       -3.98100
C          0.89200        4.62600       -3.46500
N          0.89800        3.17800       -3.14900
C          0.39900        2.76000       -1.91500
O          0.02300        3.52700       -1.05400
N          0.35500        1.40600       -1.70300
C          0.75100        0.44200       -2.58200
O          0.62500       -0.74100       -2.27300
C          1.30300        0.93000       -3.85900
C          1.80900       -0.03700       -4.88100
C          1.33700        2.26200       -4.07400
P          3.02600        8.25000       -3.01700
O          2.73200        9.66000       -2.68600
O          4.15400        7.94900       -3.92000
O          3.23100        7.42400       -1.65700
C          2.45200        7.70700       -0.51000
C          2.89900        6.91000        0.70900
O          2.50500        5.53600        0.58500
C          4.42400        6.92700        0.93500
O          4.67100        7.36100        2.27200
C          4.80100        5.45900        0.70000
C          3.54100        4.72400        1.10700
N          3.40800        3.37800        0.54700
C          3.55700        2.98900       -0.76600
N          3.28800        1.72700       -0.98400
C          2.93700        1.24700        0.27700
C          2.52300       -0.02500        0.73700
N          2.36800       -1.07400       -0.06300
N          2.26300       -0.19100        2.04900
C          2.40800        0.86000        2.84700
N          2.77300        2.11100        2.53400
C          3.01800        2.24200        1.22400
P          6.16300        7.47400        2.87000
O          6.14800        8.54500        3.87800
O          7.14300        7.54400        1.76600
O          6.34300        6.07400        3.61700
C          5.58700        5.77800        4.78000
C          5.77900        4.33400        5.22500
O          5.33900        3.43300        4.20100
C          7.23500        3.96800        5.54500
O          7.28800        3.38000        6.84100
C          7.56400        2.94600        4.45000
C          6.20500        2.31100        4.22800
N          6.09200        1.53000        2.96700
C          5.62800        0.19700        3.02400
O          5.33200       -0.30100        4.11400
N          5.51900       -0.53800        1.88900
C          5.84200        0.01200        0.72200
N          5.71600       -0.74600       -0.35800
C          6.31900        1.36900        0.62100
C          6.42000        2.08000        1.75900
P          8.63000        2.87600        7.54500
O          8.51800        3.13600        8.99300
O          9.78600        3.42500        6.81300
O          8.56200        1.29500        7.29700
C          7.64800        0.48400        8.01800
C          7.81100       -1.00000        7.70900
O          7.40200       -1.30000        6.36900
C          9.26000       -1.49600        7.85000
O          9.28300       -2.72800        8.56300
C          9.66100       -1.71800        6.38900
C          8.35100       -2.19400        5.80600
N          8.29100       -2.13900        4.34500
C          8.52900       -1.05400        3.52500
N          8.35500       -1.32600        2.25800
C          7.98000       -2.67300        2.23400
C          7.64700       -3.53500        1.14900
O          7.60900       -3.25800       -0.04900
N          7.34000       -4.82700        1.55200
C          7.34200       -5.24100        2.85400
N          7.03500       -6.53100        3.05300
N          7.64100       -4.45000        3.88200
C          7.94500       -3.18200        3.50800
H         -1.39000       -6.97700       -8.64400
H         -3.04300       -6.21100      -10.04800
H         -1.43100       -5.72400      -10.57000
H         -2.94200       -3.90600      -10.75900
H         -0.47200       -3.65600       -9.47700
H         -1.39900       -1.82600       -7.75500
H         -1.33600       -3.43900       -7.23500
H         -3.69100       -1.90800       -8.36700
H         -5.96300       -2.47000       -2.54500
H         -5.29300       -4.02500       -2.34300
H         -3.98900       -5.11200       -4.12400
H         -3.09000       -4.88100       -6.32800
H         -2.65600        0.59200       -9.88000
H         -1.44000        1.35800      -10.91600
H         -2.32000        3.02100       -9.64800
H          0.42200        2.64700       -9.47500
H          0.54100        3.16300       -6.86800
H          0.39500        1.53000       -7.32600
H         -1.68800        3.42900       -6.34600
H         -1.20800       -0.32600       -6.61900
H         -3.38300        3.88100       -0.91200
H         -2.93700        4.84800       -2.24400
H         -2.22600        3.81500       -4.26900
H         -0.93400        5.97800       -6.70900
H          0.19900        7.33100       -6.78000
H         -0.35800        6.93100       -4.56300
H          2.39500        6.87200       -5.34800
H          2.90100        5.34700       -3.18700
H          2.70700        4.56500       -4.67700
H          0.63400        5.06600       -2.52400
H          0.00500        1.10100       -0.83500
H          1.69200       -1.03600       -4.51600
H          2.84500        0.15400       -5.07100
H          1.25300        0.07900       -5.78800
H          1.70900        2.60700       -4.97200
H          1.43100        7.46800       -0.72100
H          2.57300        8.74500       -0.28200
H          2.42500        7.38700        1.54200
H          4.98800        7.58300        0.30500
H          5.63100        5.17100        1.31100
H          5.10700        5.25400       -0.30500
H          3.53100        4.57900        2.16700
H          3.85500        3.63600       -1.51300
H          2.54900       -0.98900       -1.02700
H          2.07200       -1.93700        0.30800
H          2.21300        0.69000        3.84600
H          4.55000        5.94100        4.57100
H          5.92500        6.41800        5.56900
H          5.20100        4.24300        6.12100
H          7.91800        4.79200        5.55700
H          8.28300        2.22800        4.78600
H          8.00200        3.36900        3.57000
H          5.98500        1.58900        4.98700
H          5.38900       -1.67100       -0.27500
H          5.94900       -0.38400       -1.24300
H          6.57400        1.78000       -0.29100
H          6.75100        3.05700        1.71900
H          6.65200        0.78000        7.76300
H          7.84500        0.62200        9.06100
H          7.19400       -1.49600        8.42900
H          9.90600       -0.82700        8.38000
H          8.70800       -3.37000        8.11800
H         10.42500       -2.46100        6.29900
H         10.07400       -0.85700        5.90700
H          8.18500       -3.22600        6.03300
H          8.81400       -0.12600        3.87500
H          6.81500       -7.10900        2.28700
H          7.02900       -6.90100        3.96500
H          7.64100       -4.75400        4.81800
