189
seed-7_sample-0_model_chainA_pH74.pdb
O         -5.51200       11.40300       -2.41800
C         -6.32800       12.00100       -1.43000
C         -6.37200       11.19200       -0.13000
O         -6.92500        9.89900       -0.37800
C         -4.98700       10.98300        0.50300
O         -5.04900       11.28800        1.89200
C         -4.69300        9.51800        0.22400
C         -6.07900        8.89500        0.18300
N         -6.14300        7.66000       -0.64600
C         -6.72000        6.48200       -0.11300
O         -7.15500        6.47900        1.05700
N         -6.78400        5.35700       -0.87100
C         -6.30100        5.38300       -2.12000
N         -6.38800        4.25100       -2.82400
C         -5.71300        6.56600       -2.68700
C         -5.65800        7.67200       -1.92100
P         -3.83900       11.31500        2.87800
O         -4.10200       12.32400        3.93800
O         -2.60600       11.43600        2.07700
O         -3.89100        9.85000        3.53400
C         -4.88900        9.49300        4.48300
C         -4.64100        8.14000        5.12300
O         -4.89700        7.08600        4.19700
C         -3.20700        7.96000        5.64900
O         -3.26600        7.44100        6.97800
C         -2.62500        6.97000        4.64600
C         -3.83200        6.14300        4.23600
N         -3.71000        5.50900        2.92200
C         -3.51600        6.14800        1.72200
N         -3.59100        5.35300        0.69000
C         -3.84700        4.09100        1.23100
C         -4.06100        2.83000        0.60500
O         -4.10100        2.58500       -0.59100
N         -4.25900        1.79500        1.50600
C         -4.25800        1.96400        2.86100
N         -4.43900        0.84500        3.58400
N         -4.09200        3.14200        3.47000
C         -3.89600        4.16500        2.60300
P         -1.96600        7.22800        7.87200
O         -2.37900        7.30800        9.29200
O         -0.90000        8.13300        7.39000
O         -1.53600        5.71800        7.54600
C         -2.30800        4.61900        7.99800
C         -1.79900        3.28700        7.46900
O         -1.95100        3.23600        6.05200
C         -0.31500        3.01900        7.78200
O         -0.20400        1.78200        8.47500
C          0.30400        2.98900        6.38400
C         -0.85600        2.51100        5.53100
N         -0.72300        2.77700        4.07500
C         -0.94100        1.73100        3.17300
O         -1.15400        0.58300        3.52200
N         -0.89800        2.05600        1.84300
C         -0.65900        3.29700        1.32600
O         -0.68800        3.45500        0.11100
C         -0.39600        4.35800        2.31300
C         -0.07200        5.74400        1.85600
C         -0.45100        4.04800        3.62500
P          1.19300        1.19100        9.00100
O          0.92800        0.39800       10.22100
O          2.18500        2.28400        9.06000
O          1.61200        0.19200        7.80800
C          0.96000       -1.05500        7.63600
C          1.56900       -1.89800        6.52000
O          1.25700       -1.33100        5.23500
C          3.10500       -2.02300        6.59700
O          3.45900       -3.40400        6.52500
C          3.55600       -1.23100        5.36900
C          2.39900       -1.42100        4.40600
N          2.30700       -0.39900        3.35800
C          2.33800        0.96800        3.50700
N          2.13700        1.62700        2.39000
C          1.96400        0.62100        1.43900
C          1.70000        0.64700        0.04500
N          1.53100        1.76700       -0.64300
N          1.60700       -0.52500       -0.62200
C          1.76500       -1.64700        0.06700
N          1.99600       -1.80200        1.37500
C          2.08200       -0.62200        2.01100
P          5.00000       -3.90100        6.55600
O          4.99600       -5.26600        7.11000
O          5.84300       -2.87400        7.20100
O          5.38500       -3.97100        4.99800
C          4.81800       -4.95600        4.15000
C          5.18800       -4.75200        2.67900
O          4.68600       -3.49300        2.21000
C          6.70300       -4.76000        2.40000
O          6.99600       -5.72300        1.39200
C          6.95400       -3.32900        1.91100
C          5.62100       -2.98300        1.27300
N          5.41200       -1.52500        1.06100
C          5.05700       -1.04300       -0.22400
O          4.93700       -1.83500       -1.16100
N          4.85700        0.28300       -0.42700
C          4.99600        1.12500        0.59600
N          4.78800        2.41200        0.34700
C          5.35800        0.67300        1.92300
C          5.54800       -0.64700        2.09900
P          8.45300       -5.99800        0.79800
O          8.56100       -7.43700        0.48500
O          9.45000       -5.39400        1.70100
O          8.42400       -5.16700       -0.57800
C          7.62600       -5.60600       -1.67500
C          7.81600       -4.75400       -2.92900
O          7.30600       -3.42800       -2.74000
C          9.29100       -4.60300       -3.34400
O          9.40900       -4.75000       -4.76200
C          9.58800       -3.16000       -2.92900
C          8.25800       -2.50100       -3.23300
N          8.06400       -1.21000       -2.57200
C          8.11000       -0.93300       -1.22100
N          7.83300        0.31400       -0.94300
C          7.58600        0.90500       -2.18400
C          7.22200        2.24000       -2.53300
O          7.02000        3.18900       -1.77400
N          7.09100        2.42600       -3.90100
C          7.27900        1.44400       -4.83200
N          7.12300        1.81200       -6.10700
N          7.60200        0.18700       -4.52700
C          7.73900       -0.01600       -3.19100
H         -5.51800       11.95200       -3.21800
H         -7.32300       12.08600       -1.81400
H         -5.90900       12.95800       -1.20100
H         -6.97400       11.76100        0.54700
H         -4.21600       11.61300        0.11200
H         -4.10100        9.08900        1.00500
H         -4.13300        9.36300       -0.67500
H         -6.37300        8.59300        1.16600
H         -6.79400        3.45000       -2.42000
H         -6.04600        4.21800       -3.74700
H         -5.34500        6.56700       -3.65100
H         -5.24500        8.53700       -2.30200
H         -5.83700        9.46700        3.98800
H         -4.86600       10.22500        5.26300
H         -5.31300        8.09900        5.95500
H         -2.61800        8.85100        5.71800
H         -1.87600        6.35700        5.10200
H         -2.14100        7.44600        3.81900
H         -3.96700        5.33300        4.92200
H         -3.32900        7.16000        1.64400
H         -4.56100       -0.02000        3.13000
H         -4.45000        0.89100        4.56700
H         -4.11000        3.25500        4.44800
H         -3.31800        4.75300        7.67200
H         -2.23700        4.59100        9.06500
H         -2.38400        2.54100        7.96500
H          0.16700        3.73600        8.41400
H          1.12700        2.30600        6.33800
H          0.70800        3.93000        6.07200
H         -0.94000        1.44600        5.58300
H         -1.05400        1.32700        1.20000
H         -0.07900        5.77800        0.78700
H          0.89700        6.02000        2.21500
H         -0.80200        6.42600        2.23900
H         -0.28200        4.79400        4.31800
H         -0.06800       -0.87300        7.40300
H          1.07200       -1.60300        8.54800
H          1.14200       -2.87100        6.64600
H          3.55500       -1.65600        7.49600
H          4.46300       -1.62900        4.96500
H          3.76800       -0.20400        5.58100
H          2.51100       -2.34500        3.87800
H          2.50400        1.43300        4.41300
H          1.59200        2.63800       -0.18800
H          1.34400        1.72800       -1.60900
H          1.70100       -2.51900       -0.48100
H          3.75300       -4.91700        4.24400
H          5.20700       -5.90600        4.45300
H          4.74800       -5.58300        2.17000
H          7.31300       -5.02100        3.24000
H          7.74900       -3.29500        1.19600
H          7.25400       -2.65200        2.68400
H          5.53800       -3.39400        0.28900
H          4.54200        2.70400       -0.56000
H          4.87900        3.07400        1.07000
H          5.46600        1.33800        2.70400
H          5.80100       -1.00300        3.03400
H          6.59700       -5.56400       -1.38600
H          7.93200       -6.60300       -1.91500
H          7.28100       -5.27600       -3.69400
H          9.95200       -5.32200       -2.90700
H          8.82400       -4.11400       -5.20300
H         10.38000       -2.73700       -3.51100
H          9.91800       -3.04800       -1.91700
H          8.18100       -2.28500       -4.27800
H          8.34000       -1.63800       -0.50300
H          6.88400        2.74200       -6.32500
H          7.24700        1.15300       -6.82800
H          7.72800       -0.52000       -5.20000
