189
seed-5_sample-0_model_chainA_pH74.pdb
O         -0.62200      -10.61600       -3.81600
C          0.00900      -11.15900       -4.98200
C          0.75500      -10.10400       -5.79900
O         -0.13300       -9.05100       -6.18300
C          1.91500       -9.45500       -5.03600
O          3.06500       -9.45200       -5.87100
C          1.39900       -8.06900       -4.72200
C          0.46400       -7.79300       -5.88000
N         -0.59500       -6.79600       -5.55800
C         -0.70600       -5.61600       -6.32700
O          0.09700       -5.40500       -7.25500
N         -1.67600       -4.71100       -6.04200
C         -2.52100       -4.95900       -5.03300
N         -3.46100       -4.04700       -4.79500
C         -2.43300       -6.15100       -4.23700
C         -1.46400       -7.03500       -4.53500
P          4.51300       -9.10200       -5.37100
O          5.51500       -9.73100       -6.26200
O          4.57000       -9.38400       -3.92100
O          4.54400       -7.51500       -5.59100
C          4.74700       -6.95700       -6.88300
C          4.84900       -5.44800       -6.85700
O          3.57900       -4.86200       -6.60400
C          5.82500       -4.92300       -5.78800
O          6.81200       -4.13200       -6.42900
C          4.90300       -4.11100       -4.87900
C          3.76500       -3.70500       -5.79500
N          2.51800       -3.40000       -5.10300
C          1.76800       -4.25900       -4.33600
N          0.62800       -3.75900       -3.96000
C          0.61200       -2.47600       -4.50200
C         -0.38300       -1.45800       -4.46400
O         -1.49000       -1.51100       -3.94400
N         -0.00100       -0.29900       -5.12000
C          1.19900       -0.13900       -5.74400
N          1.40800        1.06000       -6.30200
N          2.13200       -1.08400       -5.82000
C          1.77600       -2.23000       -5.18600
P          8.07600       -3.54000       -5.64800
O          9.14200       -3.30600       -6.64100
O          8.36800       -4.38000       -4.47200
O          7.53500       -2.12300       -5.14000
C          7.31200       -1.05400       -6.04600
C          6.67400        0.14400       -5.37800
O          5.36700       -0.19400       -4.92500
C          7.46600        0.66200       -4.16200
O          7.85200        2.01000       -4.40100
C          6.44200        0.51700       -3.03100
C          5.12100        0.58200       -3.76700
N          3.96900        0.02000       -3.02100
C          2.81400        0.79400       -2.86200
O          2.72500        1.94400       -3.24600
N          1.76000        0.18900       -2.23200
C          1.74000       -1.09400       -1.74800
O          0.71200       -1.52600       -1.23200
C          2.99200       -1.85700       -1.91000
C          3.10000       -3.25500       -1.38300
C          4.03000       -1.26900       -2.53900
P          8.75100        2.83600       -3.37700
O          9.51300        3.83900       -4.15400
O          9.48700        1.89900       -2.50500
O          7.63900        3.59400       -2.49400
C          6.90600        4.68200       -3.02200
C          5.95900        5.30100       -2.00300
O          4.86200        4.41600       -1.74700
C          6.62500        5.61200       -0.65100
O          6.41800        6.98700       -0.34600
C          5.88400        4.67000        0.30200
C          4.53700        4.49600       -0.37200
N          3.83100        3.27300        0.01200
C          4.31000        1.98100       -0.00200
N          3.41300        1.07600        0.30400
C          2.25900        1.82300        0.54100
C          0.93600        1.46400        0.89400
N          0.54500        0.20900        1.05800
N          0.02200        2.44000        1.07200
C          0.41300        3.69700        0.90200
N          1.62000        4.16200        0.55400
C          2.50400        3.17000        0.37900
P          7.02900        7.64300        0.98300
O          7.16500        9.08500        0.72100
O          8.21200        6.88700        1.43600
O          5.85300        7.42200        2.04700
C          4.63100        8.13100        1.93200
C          3.58400        7.64100        2.92400
O          3.25800        6.27000        2.66100
C          4.02800        7.72100        4.39000
O          3.11600        8.53200        5.11300
C          3.96500        6.25700        4.84100
C          2.91700        5.68600        3.90600
N          2.93800        4.20300        3.81200
C          1.74900        3.47100        4.04600
O          0.71000        4.07000        4.32800
N          1.75300        2.11600        3.97300
C          2.88900        1.48400        3.67200
N          2.84900        0.15800        3.61000
C          4.12200        2.19500        3.42500
C          4.09200        3.53700        3.50100
P          3.26100        8.84400        6.66700
O          2.83600       10.24100        6.89000
O          4.59900        8.43200        7.12600
O          2.16400        7.86000        7.30100
C          0.77800        8.10600        7.11200
C         -0.10600        7.14000        7.88900
O          0.00100        5.81400        7.35500
C          0.25400        7.05000        9.38200
O         -0.93600        7.05300       10.16300
C          0.94800        5.69000        9.45800
C          0.15700        4.90900        8.43500
N          0.83100        3.70200        7.94900
C          2.08300        3.59400        7.38600
N          2.37000        2.37600        6.99900
C          1.24100        1.62600        7.33400
C          0.94100        0.24300        7.14800
O          1.64500       -0.61600        6.61500
N         -0.30700       -0.11100        7.64000
C         -1.17500        0.75900        8.23100
N         -2.33400        0.23800        8.65200
N         -0.92400        2.05800        8.40300
C          0.29400        2.42600        7.92700
H         -1.07900      -11.32400       -3.33600
H         -0.74200      -11.60300       -5.60200
H          0.72900      -11.87900       -4.65200
H          1.14600      -10.62600       -6.64700
H          2.21000       -9.96100       -4.14000
H          2.19700       -7.35700       -4.69200
H          0.92400       -7.99900       -3.76600
H          1.00900       -7.37100       -6.69800
H         -3.51000       -3.23400       -5.34900
H         -4.10700       -4.18500       -4.06500
H         -3.09200       -6.32400       -3.46200
H         -1.37700       -7.90300       -3.98400
H          3.92400       -7.23400       -7.50900
H          5.67400       -7.33700       -7.25800
H          5.21800       -5.17200       -7.82300
H          6.36300       -5.66700       -5.23900
H          5.40800       -3.25000       -4.49300
H          4.57200       -4.66300       -4.02400
H          4.00800       -2.80600       -6.32200
H          2.08000       -5.21000       -4.08300
H          0.71500        1.75700       -6.24400
H          2.25400        1.24400       -6.77000
H          2.99000       -0.96500       -6.28700
H          6.66700       -1.39500       -6.82800
H          8.26300       -0.74700       -6.42800
H          6.65400        0.91600       -6.11900
H          8.37700        0.14500       -3.94300
H          6.53000        1.31700       -2.32600
H          6.56500       -0.37900       -2.45900
H          4.83800        1.59800       -3.94600
H          0.94200        0.72400       -2.11600
H          2.17600       -3.53500       -0.92200
H          3.88800       -3.30400       -0.66100
H          3.31300       -3.92500       -2.19000
H          4.90300       -1.80500       -2.66400
H          6.33300        4.33600       -3.85600
H          7.60800        5.43600       -3.31100
H          5.63500        6.22300       -2.43800
H          7.68400        5.46400       -0.60900
H          5.77500        5.11000        1.27100
H          6.39700        3.74500        0.46500
H          3.88200        5.29700       -0.09900
H          5.28800        1.74700       -0.23300
H          1.18800       -0.52700        0.93500
H         -0.38800        0.01200        1.30200
H         -0.31200        4.41400        1.05900
H          4.25100        8.00400        0.94000
H          4.82800        9.16100        2.14500
H          2.74600        8.29200        2.78900
H          4.99500        8.15300        4.54100
H          3.65900        6.17800        5.86300
H          4.90600        5.75000        4.79600
H          1.92700        5.90500        4.24700
H          2.00400       -0.31700        3.78000
H          3.66500       -0.35000        3.39400
H          4.99400        1.69100        3.19900
H          4.95500        4.07400        3.32200
H          0.55300        8.01200        6.07000
H          0.57400        9.09100        7.47500
H         -1.09800        7.52900        7.79100
H          0.85400        7.85800        9.74500
H         -1.51700        6.33300        9.87000
H          0.86300        5.25900       10.43400
H          2.00200        5.72000        9.27400
H         -0.75700        4.56200        8.87000
H          2.72900        4.39100        7.28000
H         -2.51800       -0.72100        8.52400
H         -3.00200        0.81400        9.08900
H         -1.55400        2.68300        8.82900
