189
seed-1_sample-0_model_chainA_pH74.pdb
O          5.97500       -8.62300       -0.51900
C          5.82100       -9.46000       -1.64000
C          4.64800       -9.03500       -2.53500
O          3.41500       -9.14100       -1.82100
C          4.76900       -7.57600       -3.00800
O          4.66900       -7.51700       -4.42400
C          3.62400       -6.87400       -2.30400
C          2.62400       -7.98800       -2.08700
N          1.73000       -7.67400       -0.94300
C          0.33100       -7.68400       -1.10800
O         -0.15900       -7.99800       -2.20500
N         -0.47400       -7.34400       -0.07200
C          0.07500       -7.00600        1.09900
N         -0.75300       -6.67100        2.09000
C          1.48900       -7.00200        1.30000
C          2.26900       -7.34100        0.26200
P          4.89400       -6.18700       -5.26400
O          5.48400       -6.54100       -6.57600
O          5.61700       -5.23400       -4.40000
O          3.40200       -5.62800       -5.50000
C          2.52600       -6.22500       -6.45000
C          1.27000       -5.40500       -6.68100
O          0.41600       -5.47500       -5.54000
C          1.55900       -3.92000       -6.95700
O          0.78300       -3.46500       -8.06500
C          1.15300       -3.27000       -5.63700
C          0.03600       -4.16100       -5.14000
N         -0.10200       -4.12100       -3.68400
C          0.84300       -4.51300       -2.76600
N          0.43000       -4.44800       -1.53400
C         -0.87500       -3.97600       -1.62500
C         -1.83400       -3.71300       -0.61600
O         -1.71200       -3.87800        0.59100
N         -3.02800       -3.22800       -1.12100
C         -3.27100       -3.02000       -2.44800
N         -4.47600       -2.51900       -2.74900
N         -2.38900       -3.28100       -3.41500
C         -1.21500       -3.75500       -2.93900
P          0.97400       -1.99900       -8.68900
O          0.47200       -2.02800      -10.07500
O          2.35900       -1.55200       -8.44800
O         -0.00300       -1.07700       -7.80700
C         -1.41000       -1.12100       -7.96700
C         -2.13600       -0.26300       -6.94200
O         -1.89000       -0.76700       -5.62900
C         -1.71000        1.21600       -6.95200
O         -2.86800        2.04800       -6.97700
C         -0.93300        1.31900       -5.63700
C         -1.69700        0.34000       -4.77100
N         -0.99300       -0.08000       -3.53400
C         -1.68200       -0.04000       -2.32300
O         -2.82500        0.36800       -2.22500
N         -0.99800       -0.48000       -1.21800
C          0.28600       -0.94500       -1.19800
O          0.77100       -1.32900       -0.13900
C          0.98300       -0.95000       -2.49300
C          2.40400       -1.40400       -2.57800
C          0.30800       -0.53000       -3.58500
P         -2.75000        3.65200       -7.06900
O         -3.96100        4.15200       -7.76000
O         -1.42300        4.01200       -7.60700
O         -2.79700        4.11000       -5.52600
C         -4.02700        4.26800       -4.84300
C         -3.86600        4.90300       -3.46300
O         -3.29200        3.96500       -2.53700
C         -2.96900        6.15600       -3.44500
O         -3.66500        7.22100       -2.80900
C         -1.76600        5.67300       -2.62400
C         -2.40500        4.66800       -1.68900
N         -1.45100        3.72900       -1.09300
C         -0.48700        2.97400       -1.72900
N          0.18700        2.18700       -0.93000
C         -0.37400        2.44000        0.32400
C         -0.10900        1.91900        1.61100
N          0.81100        0.98600        1.84600
N         -0.82300        2.38300        2.65800
C         -1.74700        3.31200        2.42500
N         -2.09700        3.87100        1.26000
C         -1.37200        3.38700        0.24100
P         -2.98700        8.68000       -2.58400
O         -4.06000        9.67600       -2.67600
O         -1.80800        8.81800       -3.46500
O         -2.47900        8.61000       -1.06100
C         -3.41200        8.61800        0.01100
C         -2.73000        8.43600        1.36700
O         -2.00300        7.19800        1.39000
C         -1.73000        9.54600        1.72900
O         -1.94400        9.95900        3.08100
C         -0.38900        8.82500        1.57300
C         -0.76000        7.43100        2.02800
N          0.22600        6.39000        1.64700
C          0.74100        5.53300        2.64700
O          0.37500        5.67700        3.82100
N          1.64000        4.57100        2.32100
C          2.02500        4.43800        1.05000
N          2.89900        3.47700        0.78100
C          1.52700        5.29300        0.00200
C          0.63600        6.24300        0.35000
P         -1.09500       11.13700        3.78500
O         -1.98500       11.85000        4.72300
O         -0.40100       11.91000        2.73300
O          0.00400       10.32700        4.62600
C         -0.31900        9.73200        5.87600
C          0.91300        9.22200        6.62100
O          1.46000        8.06100        5.97200
C          2.05200       10.25700        6.71600
O          2.60700       10.25900        8.02800
C          3.06300        9.70700        5.71000
C          2.86700        8.21500        5.89400
N          3.39100        7.39300        4.80300
C          3.18600        7.53800        3.44500
N          3.75800        6.59800        2.73600
C          4.38100        5.77800        3.68200
C          5.14900        4.58600        3.52800
O          5.41800        3.99100        2.48500
N          5.61200        4.07800        4.73700
C          5.35700        4.64500        5.95500
N          5.89500        4.02500        7.01800
N          4.63200        5.75100        6.12300
C          4.17400        6.26200        4.94800
H          6.72500       -8.93000        0.01300
H          5.64900      -10.46000       -1.30000
H          6.71600       -9.39100       -2.22300
H          4.67000       -9.68800       -3.38200
H          5.70600       -7.11600       -2.77500
H          3.21100       -6.10100       -2.91800
H          3.92000       -6.39000       -1.39700
H          1.98500       -8.13100       -2.93300
H         -1.72600       -6.67700        1.94200
H         -0.39100       -6.41800        2.97000
H          1.89700       -6.74700        2.21300
H          3.29400       -7.34900        0.37900
H          2.24200       -7.19300       -6.09400
H          3.05000       -6.28500       -7.38100
H          0.80300       -5.82700       -7.54600
H          2.57000       -3.69600       -7.22800
H          0.80500       -2.27000       -5.79300
H          1.96400       -3.18800       -4.94300
H         -0.90500       -3.84500       -5.53900
H          1.79000       -4.82900       -3.02900
H         -5.12300       -2.32800       -2.03200
H         -4.71500       -2.34100       -3.68700
H         -2.57300       -3.14300       -4.37200
H         -1.73700       -2.13400       -7.86000
H         -1.64100       -0.73500       -8.93800
H         -3.17100       -0.31200       -7.20900
H         -1.13100        1.52500       -7.79700
H         -0.97000        2.31000       -5.23600
H          0.11200        1.10700       -5.72500
H         -2.59600        0.78800       -4.40200
H         -1.47800       -0.45900       -0.35900
H          2.74500       -1.69200       -1.60600
H          3.01200       -0.60500       -2.94700
H          2.47200       -2.24000       -3.24200
H          0.78800       -0.54700       -4.49800
H         -4.47800        3.30500       -4.72500
H         -4.63600        4.92500       -5.42800
H         -4.85700        5.19200       -3.18300
H         -2.68400        6.53100       -4.40600
H         -1.31700        6.47900       -2.08100
H         -0.97400        5.26700       -3.21800
H         -2.86400        5.15600       -0.85500
H         -0.31300        3.02500       -2.74500
H          1.34900        0.62700        1.10400
H          0.95400        0.65500        2.76200
H         -2.26300        3.64600        3.25400
H         -4.11100        7.82100       -0.13400
H         -3.90300        9.56900        0.01400
H         -3.52700        8.46000        2.08000
H         -1.80400       10.43200        1.13300
H          0.36400        9.25600        2.19900
H          0.02700        8.87300        0.58800
H         -0.79400        7.37200        3.09600
H          3.23300        2.89900        1.50400
H          3.21400        3.34200       -0.14200
H          1.84000        5.18200       -0.97500
H          0.25600        6.87100       -0.37500
H         -0.98000        8.90800        5.70300
H         -0.77600       10.48400        6.48400
H          0.56200        9.00000        7.60700
H          1.74700       11.26300        6.51900
H          2.90100        9.36300        8.25600
H          4.06200       10.00600        5.95200
H          2.92100       10.05100        4.70700
H          3.40400        7.88200        6.75700
H          2.63800        8.30900        3.03200
H          6.43000        3.20800        6.89300
H          5.75400        4.38700        7.92300
H          4.44800        6.15400        7.00200
