189
seed-2_sample-1_model_chainA_pH74.pdb
O         11.17200        1.75300       -5.07600
C          9.96800        2.43500       -4.78300
C          8.93900        2.33100       -5.89300
O          8.46200        0.98900       -6.01800
C          7.72300        3.21200       -5.60200
O          7.36400        3.93400       -6.76300
C          6.67600        2.21400       -5.16300
C          7.04100        0.96800       -5.92300
N          6.56800       -0.25400       -5.23000
C          5.65200       -1.11600       -5.88100
O          5.24400       -0.83700       -7.03100
N          5.21900       -2.24200       -5.25300
C          5.66700       -2.51400       -4.02000
N          5.21200       -3.62800       -3.44500
C          6.59900       -1.65400       -3.33400
C          7.02000       -0.55000       -3.97400
P          6.35400        5.15200       -6.77700
O          6.76300        6.12500       -7.80800
O          6.19800        5.62000       -5.39000
O          4.98400        4.45400       -7.23500
C          4.76400        4.07500       -8.58500
C          3.33300        3.67700       -8.87200
O          3.02100        2.43500       -8.24700
C          2.30300        4.71100       -8.39700
O          1.30400        4.84900       -9.40500
C          1.78900        4.06100       -7.11900
C          1.87000        2.57100       -7.42500
N          2.04800        1.71800       -6.25700
C          3.06400        1.79400       -5.33800
N          3.06700        0.81100       -4.48400
C          1.97700        0.02500       -4.84900
C          1.48700       -1.20000       -4.31600
O          1.96100       -1.86000       -3.40100
N          0.34700       -1.65600       -4.95500
C         -0.25100       -1.01300       -5.99500
N         -1.35900       -1.58600       -6.47800
N          0.20900        0.11700       -6.53400
C          1.32500        0.58200       -5.92000
P          0.11900        5.91800       -9.29400
O         -0.35700        6.19700      -10.65900
O          0.54900        7.04200       -8.44600
O         -1.01800        5.10500       -8.51000
C         -1.71400        4.03600       -9.12700
C         -2.61300        3.29300       -8.16200
O         -1.83200        2.64900       -7.15700
C         -3.62800        4.19500       -7.44000
O         -4.93600        3.75300       -7.76400
C         -3.26500        3.97100       -5.96500
C         -2.61900        2.60600       -5.98100
N         -1.75800        2.29800       -4.81400
C         -1.97900        1.11900       -4.09700
O         -2.90600        0.36300       -4.32200
N         -1.08500        0.84300       -3.09500
C         -0.01700        1.61700       -2.73600
O          0.73400        1.23000       -1.84900
C          0.14600        2.87100       -3.49300
C          1.25100        3.81300       -3.15100
C         -0.71900        3.13700       -4.49100
P         -6.26300        4.56000       -7.30600
O         -7.32000        4.29000       -8.30600
O         -5.90500        5.96000       -7.01300
O         -6.65000        3.83500       -5.92500
C         -7.25300        2.55500       -5.92500
C         -7.58000        2.06400       -4.52400
O         -6.37600        1.74400       -3.80900
C         -8.35400        3.08700       -3.67500
O         -9.49700        2.42800       -3.13400
C         -7.31900        3.47600       -2.61400
C         -6.49300        2.21100       -2.47800
N         -5.14600        2.41700       -1.93900
C         -4.22400        3.36300       -2.31400
N         -3.06300        3.24400       -1.71500
C         -3.23900        2.13300       -0.88700
C         -2.37400        1.46300        0.01100
N         -1.10800        1.81500        0.20600
N         -2.85200        0.40600        0.70300
C         -4.11200        0.04300        0.49900
N         -5.01300        0.58100       -0.32800
C         -4.51300        1.62600       -1.00100
P        -10.53300        3.17300       -2.13200
O        -11.82600        2.49500       -2.27600
O        -10.46100        4.63400       -2.32800
O         -9.92100        2.82800       -0.69000
C         -9.91100        1.49500       -0.20700
C         -9.14700        1.36600        1.10400
O         -7.77400        1.73000        0.91900
C         -9.69000        2.25900        2.22900
O        -10.11000        1.42500        3.30200
C         -8.46500        3.10500        2.61100
C         -7.31300        2.23200        2.16600
N         -6.03300        2.95700        1.97500
C         -4.88200        2.53700        2.67500
O         -4.95200        1.59500        3.46700
N         -3.70000        3.17100        2.48400
C         -3.63800        4.19000        1.62800
N         -2.45300        4.76500        1.45800
C         -4.79600        4.65900        0.90700
C         -5.95700        4.01500        1.11000
P        -10.82000        1.99100        4.62900
O        -11.70400        0.93700        5.15700
O        -11.39300        3.32200        4.34900
O         -9.56700        2.16600        5.61700
C         -8.95800        1.03700        6.22200
C         -7.82600        1.42000        7.15700
O         -6.70200        1.92500        6.41800
C         -8.21200        2.50900        8.16900
O         -7.79200        2.12500        9.47500
C         -7.41100        3.71100        7.67000
C         -6.18000        3.03500        7.12000
N         -5.38600        3.87700        6.22300
C         -5.81200        4.62100        5.14500
N         -4.83600        5.24400        4.54100
C         -3.69100        4.89300        5.26100
C         -2.31400        5.24900        5.08700
O         -1.82500        5.96500        4.21800
N         -1.48300        4.69000        6.04200
C         -1.91200        3.87400        7.04500
N         -0.96600        3.43300        7.88300
N         -3.18200        3.51700        7.22500
C         -4.01600        4.06000        6.29800
H         11.78900        1.85400       -4.33500
H         10.19300        3.46900       -4.62300
H          9.54600        1.97700       -3.91300
H          9.42400        2.64800       -6.79200
H          7.88000        3.96300       -4.85600
H          5.69400        2.54900       -5.42600
H          6.65800        2.06700       -4.10300
H          6.57700        0.94800       -6.88700
H          4.57600       -4.20600       -3.92600
H          5.51200       -3.87300       -2.54000
H          6.93200       -1.87900       -2.38300
H          7.69200        0.08200       -3.51200
H          5.39900        3.24400       -8.81200
H          4.98200        4.92900       -9.19200
H          3.26900        3.60300       -9.93800
H          2.66600        5.70200       -8.22200
H          0.78000        4.35600       -6.91800
H          2.35100        4.34100       -6.25200
H          0.94800        2.25900       -7.87000
H          3.75900        2.55700       -5.32500
H         -1.69600       -2.42000       -6.07800
H         -1.83700       -1.17400       -7.23300
H         -0.21800        0.56700       -7.29900
H         -0.99900        3.34800       -9.52900
H         -2.33400        4.45200       -9.89300
H         -3.15300        2.59200       -8.76300
H         -3.60200        5.23200       -7.70100
H         -4.13900        3.97600       -5.34800
H         -2.63100        4.73400       -5.56500
H         -3.36600        1.84100       -5.94600
H         -1.22500        0.01100       -2.58700
H          1.81800        3.41600       -2.33500
H          0.83900        4.76000       -2.87200
H          1.88900        3.93800       -4.00100
H         -0.59600        4.00600       -5.03500
H         -6.58200        1.86000       -6.38400
H         -8.17300        2.63000       -6.46600
H         -8.19900        1.20300       -4.66800
H         -8.72600        3.94900       -4.18800
H         -7.79200        3.73000       -1.68800
H         -6.74000        4.33600       -2.87900
H         -6.96800        1.54200       -1.79100
H         -4.42600        4.10200       -3.00600
H         -0.72900        2.58100       -0.28300
H         -0.54900        1.31000        0.83900
H         -4.44000       -0.76300        1.05400
H         -9.44900        0.86600       -0.93900
H        -10.92400        1.20200       -0.02800
H         -9.26200        0.34100        1.39100
H        -10.53000        2.86600        1.96300
H         -8.43100        3.28200        3.66600
H         -8.46100        4.07700        2.16400
H         -7.08200        1.49300        2.90400
H         -1.67000        4.43600        1.95600
H         -2.35700        5.52100        0.83400
H         -4.73500        5.46000        0.25900
H         -6.80400        4.32200        0.60700
H         -8.56800        0.40400        5.45300
H         -9.70500        0.53600        6.80300
H         -7.58600        0.51900        7.68300
H         -9.26300        2.69800        8.23600
H         -6.84000        1.94200        9.46700
H         -7.16700        4.37900        8.47000
H         -7.93100        4.32100        6.96100
H         -5.50000        2.78400        7.90700
H         -6.79800        4.68000        4.84600
H         -0.02700        3.69800        7.74900
H         -1.20900        2.84400        8.63400
H         -3.48500        2.92400        7.95000
