189
seed-8_sample-2_model_chainA_pH74.pdb
O          1.59100       -2.74300      -11.29700
C          2.61900       -2.01600      -11.98100
C          3.45000       -1.11100      -11.05900
O          2.62800       -0.12000      -10.44300
C          4.15900       -1.87800       -9.93100
O          5.53400       -1.48700       -9.89400
C          3.38800       -1.46300       -8.69100
C          2.91800       -0.07000       -9.04600
N          1.71100        0.33500       -8.27400
C          1.79200        1.44300       -7.39400
O          2.86400        2.06000       -7.26700
N          0.70100        1.82700       -6.68500
C         -0.43700        1.14700       -6.83300
N         -1.48400        1.56300       -6.11600
C         -0.54800        0.00800       -7.72100
C          0.54100       -0.35300       -8.41800
P          6.66300       -2.17500       -9.01900
O          7.98000       -2.03400       -9.68500
O          6.18700       -3.52300       -8.66600
O          6.65400       -1.26100       -7.69700
C          7.24900        0.03300       -7.69000
C          7.26700        0.67200       -6.31700
O          5.94800        0.98500       -5.88700
C          7.90200       -0.23100       -5.24400
O          8.85900        0.53900       -4.51700
C          6.69100       -0.61100       -4.40500
C          5.80600        0.61300       -4.52100
N          4.39800        0.36400       -4.24000
C          3.55200       -0.48600       -4.92800
N          2.30300       -0.37900       -4.56200
C          2.31500        0.59300       -3.55600
C          1.25600        1.16500       -2.79800
O          0.05700        0.93300       -2.89200
N          1.69200        2.09300       -1.86800
C          2.99400        2.43800       -1.69100
N          3.23200        3.33500       -0.72500
N          4.00300        1.94200       -2.41300
C          3.59800        1.03200       -3.33000
P          9.84000       -0.09500       -3.41200
O         11.02800        0.77500       -3.30500
O         10.03500       -1.52600       -3.70700
O          8.99000        0.02800       -2.06000
C          8.80700        1.28100       -1.42300
C          7.87900        1.19900       -0.23200
O          6.56700        0.85300       -0.66100
C          8.30200        0.15000        0.81700
O          8.58400        0.81100        2.04100
C          7.06600       -0.74600        0.88400
C          5.95800        0.17300        0.41600
N          4.72600       -0.50900       -0.04800
C          3.49500       -0.14100        0.50600
O          3.38000        0.64500        1.42400
N          2.38200       -0.72800       -0.04300
C          2.37500       -1.63500       -1.06500
O          1.30200       -2.04600       -1.49700
C          3.70400       -2.03300       -1.58300
C          3.82100       -3.06100       -2.66200
C          4.79800       -1.44500       -1.05800
P          9.12500        0.04800        3.36400
O         10.00300        0.98200        4.10100
O          9.66600       -1.27000        2.97400
O          7.78100       -0.18300        4.21100
C          7.14900        0.89800        4.87700
C          5.92800        0.46800        5.68100
O          4.87800        0.05800        4.80200
C          6.20400       -0.69600        6.65000
O          5.67500       -0.35500        7.93200
C          5.46900       -1.85100        5.96500
C          4.30900       -1.14300        5.29200
N          3.71800       -1.87700        4.17500
C          4.36000       -2.53200        3.14200
N          3.55100       -3.00800        2.23200
C          2.28000       -2.64800        2.69700
C          0.97500       -2.83400        2.18500
N          0.73200       -3.43000        1.02900
N         -0.07600       -2.38300        2.89600
C          0.16800       -1.77100        4.04700
N          1.34500       -1.51700        4.62400
C          2.37100       -1.97400        3.89300
P          5.73700       -1.34600        9.21000
O          5.72800       -0.50300       10.41900
O          6.83000       -2.32400        9.04000
O          4.33700       -2.12800        9.11800
C          3.11200       -1.44800        9.34900
C          1.89400       -2.31300        9.03900
O          1.88900       -2.68200        7.65800
C          1.82600       -3.61800        9.85100
O          0.59300       -3.66700       10.55700
C          1.90400       -4.68800        8.75600
C          1.29000       -3.96600        7.57400
N          1.57500       -4.59100        6.25600
C          0.50000       -4.90800        5.38700
O         -0.66100       -4.69100        5.74800
N          0.74100       -5.45400        4.17200
C          2.00300       -5.68700        3.80300
N          2.19000       -6.20900        2.59900
C          3.12600       -5.39400        4.66600
C          2.86200       -4.85000        5.86800
P          0.18200       -4.83800       11.57600
O         -0.61500       -4.23900       12.66800
O          1.39400       -5.61000       11.92500
O         -0.77800       -5.76200       10.67200
C         -2.10200       -5.35600       10.36500
C         -2.88100       -6.40400        9.57400
O         -2.37400       -6.53100        8.24200
C         -2.83600       -7.80700       10.20800
O         -4.14000       -8.37400       10.24400
C         -1.94100       -8.56400        9.23000
C         -2.31400       -7.90800        7.91400
N         -1.34000       -8.13300        6.84200
C          0.02000       -7.90400        6.86900
N          0.60600       -8.15700        5.72800
C         -0.42800       -8.59100        4.88900
C         -0.42000       -9.00400        3.52300
O          0.54200       -9.05000        2.75100
N         -1.67300       -9.38300        3.06200
C         -2.80600       -9.35800        3.82300
N         -3.92800       -9.77100        3.21000
N         -2.83900       -8.96500        5.09400
C         -1.62200       -8.59300        5.56500
H          1.10600       -3.29200      -11.93300
H          2.16000       -1.40500      -12.73000
H          3.28900       -2.73800      -12.39900
H          4.18800       -0.66800      -11.69500
H          4.16700       -2.94200      -10.04200
H          4.02200       -1.44900       -7.82900
H          2.59000       -2.13100       -8.44200
H          3.66500        0.65700       -8.80600
H         -1.39300        2.33900       -5.51700
H         -2.34700        1.09400       -6.18700
H         -1.43600       -0.50900       -7.81500
H          0.49300       -1.15500       -9.06600
H          6.69600        0.66600       -8.35300
H          8.26600       -0.08200       -8.00100
H          7.85900        1.55700       -6.42100
H          8.43000       -1.09100       -5.60100
H          6.96800       -0.79100       -3.38700
H          6.21400       -1.51100       -4.73200
H          6.09800        1.35500       -3.80700
H          3.87500       -1.14000       -5.65800
H          2.48600        3.69800       -0.19500
H          4.15300        3.63100       -0.54500
H          4.94200        2.21000       -2.29100
H          8.39500        1.96900       -2.13200
H          9.76200        1.60600       -1.06700
H          7.91700        2.16600        0.22400
H          9.18600       -0.40900        0.59100
H          6.88900       -1.08400        1.88400
H          7.15500       -1.63500        0.29500
H          5.60900        0.78700        1.22000
H          1.50900       -0.47200        0.33400
H          2.84500       -3.40100       -2.93800
H          4.39900       -3.88800       -2.30600
H          4.30300       -2.63000       -3.51500
H          5.72600       -1.70600       -1.42700
H          6.84100        1.61600        4.14600
H          7.85800        1.30900        5.56500
H          5.65100        1.32500        6.25900
H          7.23100       -0.93600        6.82900
H          5.12300       -2.56800        6.68000
H          6.08300       -2.40700        5.28700
H          3.50900       -1.01600        5.99100
H          5.38600       -2.63600        3.09300
H          1.47800       -3.77100        0.48500
H         -0.19500       -3.53200        0.71300
H         -0.66300       -1.44800        4.56600
H          3.08100       -0.57700        8.72800
H          3.07300       -1.19300       10.38800
H          1.05200       -1.70800        9.30300
H          2.59100       -3.73300       10.59000
H          1.33800       -5.55700        9.01900
H          2.89400       -5.05200        8.57500
H          0.22100       -3.97400        7.62400
H          1.41700       -6.40400        2.02100
H          3.10200       -6.40200        2.28200
H          4.09400       -5.59500        4.37100
H          3.64100       -4.62500        6.50700
H         -2.05700       -4.45700        9.78700
H         -2.61500       -5.21000       11.29300
H         -3.89100       -6.05000        9.57500
H         -2.48200       -7.82300       11.21800
H         -4.51300       -8.38500        9.34800
H         -2.16600       -9.61000        9.22300
H         -0.89800       -8.51500        9.46300
H         -3.22600       -8.31300        7.52800
H          0.52400       -7.56700        7.70500
H         -3.89700      -10.06100        2.27000
H         -4.78100       -9.78400        3.70100
H         -3.66100       -8.94600        5.63600
