189
seed-2_sample-3_model_chainA_pH74.pdb
O         -0.18900       -4.95100      -11.13000
C          0.92800       -5.46200      -11.84100
C          2.23400       -5.25400      -11.06800
O          2.50300       -3.86100      -10.93000
C          2.19600       -5.85000       -9.65400
O          3.37300       -6.60900       -9.42300
C          2.10100       -4.63400       -8.76100
C          2.81100       -3.56600       -9.57300
N          2.35800       -2.19500       -9.24300
C          3.28500       -1.24200       -8.76800
O          4.48000       -1.56100       -8.62800
N          2.86700        0.01100       -8.46000
C          1.57800        0.32300       -8.61200
N          1.21000        1.56100       -8.29600
C          0.61300       -0.62200       -9.09500
C          1.04500       -1.85900       -9.40000
P          3.63800       -7.49500       -8.12400
O          4.50300       -8.64000       -8.49600
O          2.34000       -7.76600       -7.47900
O          4.48200       -6.50200       -7.18100
C          5.83700       -6.19700       -7.47300
C          6.51800       -5.41300       -6.36300
O          5.99500       -4.09100       -6.28400
C          6.35300       -6.05500       -4.97500
O          7.61900       -6.05100       -4.33000
C          5.34200       -5.12700       -4.30800
C          5.65400       -3.78000       -4.94100
N          4.53400       -2.84200       -4.95100
C          3.27100       -3.06200       -5.45800
N          2.52100       -1.99900       -5.45900
C          3.32800       -1.00100       -4.91300
C          3.07600        0.37900       -4.68200
O          2.06100        1.00900       -4.95200
N          4.14500        1.03300       -4.08900
C          5.32700        0.43200       -3.76000
N          6.24000        1.21000       -3.17400
N          5.59500       -0.85500       -3.99200
C          4.55800       -1.51300       -4.57200
P          7.85700       -6.63700       -2.85600
O          9.25500       -7.10900       -2.78000
O          6.76600       -7.58100       -2.54200
O          7.70300       -5.35200       -1.90900
C          8.67400       -4.31800       -1.93800
C          8.30400       -3.15700       -1.03400
O          7.11000       -2.54400       -1.49600
C          8.07400       -3.56700        0.43400
O          8.93700       -2.80200        1.25900
C          6.60000       -3.21900        0.64200
C          6.36500       -2.12500       -0.36900
N          4.95400       -1.93800       -0.77000
C          4.39700       -0.65900       -0.69000
O          4.98100        0.29500       -0.20600
N          3.12600       -0.52400       -1.18800
C          2.36800       -1.51700       -1.74500
O          1.26200       -1.24900       -2.19100
C          2.98300       -2.85500       -1.76200
C          2.22700       -4.02900       -2.29500
C          4.23800       -2.99100       -1.28700
P          9.04400       -3.00500        2.86200
O         10.43700       -2.74500        3.27300
O          8.42700       -4.29900        3.21200
O          8.11300       -1.82700        3.43200
C          8.54900       -0.48100        3.38500
C          7.56000        0.47300        4.04400
O          6.35700        0.53500        3.27400
C          7.16400        0.06300        5.47600
O          7.21300        1.22200        6.30700
C          5.74900       -0.48100        5.27900
C          5.23400        0.35300        4.11900
N          4.17500       -0.29100        3.34000
C          4.11000       -1.59600        2.90800
N          3.07400       -1.85600        2.14600
C          2.40800       -0.63000        2.07500
C          1.23400       -0.21700        1.40700
N          0.50700       -1.02600        0.63800
N          0.82500        1.06000        1.55000
C          1.55600        1.87100        2.31100
N          2.68400        1.60900        2.97500
C          3.06600        0.33300        2.81300
P          6.78000        1.18600        7.87500
O          7.56200        2.21300        8.57000
O          6.81600       -0.20600        8.37500
O          5.24900        1.65400        7.81600
C          4.91500        2.97600        7.42100
C          3.40900        3.16500        7.27500
O          2.90300        2.28600        6.26500
C          2.61400        2.88000        8.55700
O          1.82600        4.02000        8.87800
C          1.74400        1.68100        8.16000
C          1.61000        1.85900        6.66200
N          1.24800        0.62100        5.92600
C          0.12500        0.62800        5.06500
O         -0.55600        1.65300        4.95400
N         -0.20500       -0.48900        4.37000
C          0.53800       -1.58700        4.50900
N          0.18000       -2.65500        3.79900
C          1.68400       -1.63300        5.38300
C          1.99400       -0.51400        6.05900
P          0.87100        4.12500       10.17300
O          0.89900        5.51600       10.66100
O          1.21700        3.03600       11.10600
O         -0.56900        3.83000        9.53900
C         -1.19400        4.78000        8.68700
C         -2.59100        4.35000        8.26500
O         -2.52200        3.21300        7.38900
C         -3.49600        3.94700        9.43900
O         -4.80400        4.47600        9.24900
C         -3.51400        2.42500        9.32400
C         -3.45900        2.24100        7.82500
N         -3.01800        0.91500        7.39200
C         -1.87000        0.24300        7.74800
N         -1.73800       -0.90900        7.14500
C         -2.87200       -1.01000        6.33600
C         -3.28700       -2.03000        5.43100
O         -2.70100       -3.07300        5.14600
N         -4.50700       -1.75000        4.82600
C         -5.23600       -0.61500        5.05500
N         -6.39300       -0.52400        4.39000
N         -4.85800        0.35500        5.88600
C         -3.67000        0.09700        6.48900
H         -0.99600       -5.09900      -11.64700
H          0.99900       -4.96000      -12.78300
H          0.78400       -6.51400      -11.97700
H          2.99300       -5.75300      -11.63400
H          1.38400       -6.52500       -9.48200
H          2.59600       -4.80200       -7.82700
H          1.09500       -4.37300       -8.50500
H          3.86000       -3.58200       -9.36500
H          1.87800        2.20400       -7.96500
H          0.26900        1.83500       -8.39300
H         -0.38000       -0.36200       -9.20500
H          0.37700       -2.56000       -9.75600
H          5.87100       -5.61700       -8.37100
H          6.36000       -7.12500       -7.57900
H          7.55700       -5.40800       -6.61900
H          6.02100       -7.07200       -4.96400
H          5.48600       -5.09800       -3.24800
H          4.32700       -5.43600       -4.44700
H          6.42300       -3.29400       -4.37800
H          2.95200       -3.98100       -5.80300
H          6.04100        2.15900       -3.00300
H          7.11200        0.83500       -2.91300
H          6.45300       -1.28200       -3.76700
H          8.76400       -3.95800       -2.94200
H          9.59800       -4.72600       -1.58600
H          9.13800       -2.48700       -1.06900
H          8.27900       -4.59100        0.66600
H          6.42400       -2.86700        1.63700
H          5.94700       -4.05700        0.51700
H          6.65100       -1.18300        0.04900
H          2.72100        0.37200       -1.14000
H          1.25800       -3.71200       -2.62000
H          2.12200       -4.76500       -1.52500
H          2.76000       -4.45100       -3.12100
H          4.67900       -3.92400       -1.31300
H          8.67200       -0.19500        2.36100
H          9.47200       -0.41800        3.92300
H          8.06000        1.41800        4.09100
H          7.79700       -0.65800        5.95000
H          5.15300       -0.33400        6.15500
H          5.71900       -1.53400        5.09300
H          4.80600        1.25600        4.50100
H          4.81400       -2.30700        3.16100
H          0.78000       -1.96400        0.51400
H         -0.30300       -0.68600        0.19400
H          1.20200        2.83600        2.40000
H          5.38200        3.18400        6.48100
H          5.26000        3.64500        8.18100
H          3.27900        4.19700        7.02300
H          3.21300        2.67600        9.42000
H          0.78900        1.71900        8.64100
H          2.16100        0.73700        8.44300
H          0.81700        2.54100        6.43800
H         -0.60400       -2.61100        3.20600
H          0.70000       -3.48800        3.86700
H          2.24500       -2.49300        5.48500
H          2.81100       -0.51300        6.69000
H         -0.59300        4.90300        7.81000
H         -1.28500        5.69600        9.23200
H         -3.01100        5.20900        7.78400
H         -3.16200        4.30200       10.39100
H         -5.15200        4.18000        8.39300
H         -4.41000        2.01200        9.73700
H         -2.72400        1.93600        9.85500
H         -4.44100        2.34700        7.41300
H         -1.18300        0.61200        8.42300
H         -6.66700       -1.24400        3.77700
H         -6.97100        0.26300        4.51300
H         -5.38400        1.17200        6.04600
