32
./All_Backbone_XYZs/c8mers/PDBs/DASXIE_fixed_backbone.pdb
N         -3.68700       -7.13500        2.17100
C         -2.35700       -6.64200        1.82800
C         -2.38400       -5.57000        0.74900
O         -1.41200       -5.40400        0.00200
N         -3.48000       -4.81100        0.67900
C         -3.59000       -3.76700       -0.32200
C         -2.68400       -2.58600        0.00500
O         -2.18600       -2.40000        1.12000
N         -2.48100       -1.74300       -1.01100
C         -1.73300       -0.47000       -0.81300
C         -2.21500        0.25600        0.43200
O         -3.42300        0.33900        0.71800
N         -1.25900        0.85900        1.15800
C         -1.66000        1.72100        2.26200
C         -2.15900        0.95200        3.48300
O         -2.75500        1.55800        4.38000
N         -1.87800       -0.35800        3.54600
C         -2.37400       -1.14200        4.69500
C         -3.82300       -1.49600        4.53500
O         -4.53500       -1.68500        5.54900
N         -4.30700       -1.63100        3.29700
C         -5.66100       -2.05600        3.03400
C         -5.82000       -3.55700        3.29800
O         -4.86600       -4.31900        3.51400
N         -7.06700       -4.00500        3.23000
C         -7.36000       -5.41900        3.48300
C         -6.71100       -6.28700        2.39800
O         -6.57900       -5.88800        1.25500
N         -6.35300       -7.51900        2.78900
C         -5.74300       -8.42000        1.81300
C         -4.40400       -7.85800        1.29800
O         -4.01600       -8.10800        0.15400
