32
./All_Backbone_XYZs/c8mers/PDBs/EVAPUM_fixed_backbone.pdb
O          7.87400       14.23400       25.73700
N          6.43600       11.97900       23.99600
C          6.75700       13.94700       25.36400
C          6.21800       12.51200       25.33500
O          7.73200       17.83400       25.92900
N          5.87300       14.91100       24.98800
C          6.89300       16.90200       26.10700
C          6.30300       16.34600       24.84100
O          9.41400       17.57000       29.29500
N          6.57800       16.51900       27.28600
C          8.74900       16.87600       28.54900
C          7.22900       17.11700       28.50900
O         12.46800       15.97500       26.10700
N          9.23500       15.90100       27.75500
C         11.24300       16.11200       26.38400
C         10.69100       15.66500       27.69500
O         11.44100       16.80700       22.03400
N         10.41200       16.76700       25.50800
C         10.87600       16.44100       23.02100
C         10.89900       17.33900       24.32400
O          7.78700       14.14100       22.54000
N         10.15500       15.33000       23.10000
C          8.63900       13.96300       21.67800
C         10.16100       14.31100       22.04500
O          5.05600       12.38200       20.90400
N          8.42900       13.46100       20.52200
C          6.27600       12.25700       20.82700
C          7.06500       13.33100       20.01600
O          4.88600       10.39500       24.21300
N          6.93200       11.27200       21.36700
C          5.76900       10.93000       23.56000
C          6.26400       10.24000       22.22400
