32
./All_Backbone_XYZs/c8mers/PDBs/FOLWOT_fixed_backbone.pdb
N         10.07200       17.55600        3.74000
C         10.12800       16.50300        2.72300
C         10.80600       15.28700        3.31500
O         11.47900       15.34500        4.35400
N         10.78100       14.15700        2.57000
C         11.48700       12.96100        3.07700
C         12.97300       13.07500        3.08900
O         13.62400       12.15000        3.60800
N         13.57400       14.09800        2.50100
C         15.02900       14.23200        2.57000
C         15.39200       14.96300        3.85200
O         14.83400       16.03200        4.14800
N         16.30100       14.39200        4.63100
C         16.56100       14.82300        5.97200
C         17.17100       16.22100        6.05000
O         17.09000       16.86600        7.09600
N         17.79300       16.69600        4.97200
C         18.32200       18.02400        4.89500
C         17.31800       19.04400        4.32500
O         17.66800       20.20400        4.16500
N         16.11000       18.59600        4.06400
C         15.08500       19.54400        3.59600
C         13.74600       19.11500        4.22600
O         12.76100       18.83300        3.50900
N         13.65600       19.11000        5.54100
C         12.34600       18.87300        6.15400
C         11.39100       19.97200        5.68100
O         11.82300       21.11500        5.47000
N         10.10300       19.65400        5.51800
C          9.41600       18.44200        5.93000
C          9.30100       17.40000        4.82700
O          8.52200       16.46800        4.96100
