32
./All_Backbone_XYZs/c8mers/PDBs/JINGAO_fixed_backbone.pdb
N         -1.12500        3.44800        3.14100
C         -0.27100        3.18600        1.98700
C         -0.01900        1.70600        1.76800
O          0.73300        1.36300        0.84700
N         -0.66100        0.83800        2.52900
C         -0.61800       -0.58200        2.31400
C          0.40800       -1.28800        3.18300
O          1.22300       -0.67900        3.86500
N          0.36700       -2.63000        3.14900
C          1.10400       -3.42700        4.12400
C          2.61300       -3.30300        4.08900
O          3.25900       -3.65100        5.07200
N          3.17200       -2.83600        2.96600
C          4.62500       -2.74200        2.83900
C          5.17200       -1.35600        3.15200
O          6.39600       -1.20100        3.17000
N          4.29400       -0.38200        3.36600
C          4.68200        1.02700        3.44300
C          4.29900        1.67200        4.76100
O          5.12900        2.30500        5.40100
N          3.02400        1.59200        5.14600
C          2.54300        2.28100        6.33200
C          1.05400        2.43000        6.25000
O          0.46100        2.23200        5.18400
N          0.41400        2.83000        7.34600
C         -1.04700        3.00900        7.31700
C         -1.42800        3.95900        6.19300
O         -0.80200        4.98900        5.96500
N         -2.51400        3.59100        5.48300
C         -3.03900        4.34100        4.35400
C         -2.19200        4.23200        3.09800
O         -2.56800        4.80600        2.07700
