32
./All_Backbone_XYZs/c8mers/PDBs/NIWHEH_fixed_backbone.pdb
N          2.63600        0.25300       20.14900
C          1.95700        0.27400       18.87600
C          2.84600       -0.27400       17.78900
O          3.49500       -1.35100       17.94800
N          2.89500        0.40100       16.64900
C          3.74400        0.08400       15.53600
C          5.09200        0.82300       15.48300
O          5.72200        0.80200       14.47500
N          5.43200        1.43600       16.62300
C          6.63000        2.30200       16.70200
C          6.10100        3.75900       16.57000
O          4.99300        4.09700       16.94100
N          7.06000        4.64600       16.14500
C          6.66000        6.08200       16.11900
C          6.44100        6.58900       17.55000
O          5.54200        7.49800       17.71000
N          7.11000        6.10400       18.55800
C          6.86000        6.48400       19.93700
C          5.47200        6.04000       20.36100
O          5.01300        4.96300       19.99000
N          4.87300        6.80100       21.31500
C          3.50500        6.46300       21.73900
C          3.42500        5.15300       22.53500
O          2.34600        4.58300       22.66700
N          4.59300        4.77300       23.14500
C          4.51300        3.71700       24.15200
C          4.17400        2.32300       23.51600
O          3.59500        1.49900       24.17800
N          4.59300        2.15400       22.24300
C          4.56300        0.84400       21.60700
C          3.76400        0.97100       20.28100
O          4.25400        1.64700       19.35300
