32
./Backbone_Most_Different/c8mers/cNPF_NMR_backbone.pdb
N         -3.90700        1.30200        0.09100
C         -3.91800        0.97200        1.51900
C         -2.53800        0.51900        2.02100
O         -2.08400        0.97200        3.07600
N         -1.88200       -0.37300        1.26200
C         -0.57000       -0.91800        1.64100
C          0.60100       -0.04000        1.15300
O          0.41700        0.76900        0.24000
N          1.84000       -0.18900        1.75100
C          3.02800        0.59500        1.34600
C          3.57900        0.14600       -0.01100
O          4.07900        0.96500       -0.78700
N          3.46200       -1.16300       -0.28800
C          3.91200       -1.75000       -1.55900
C          2.82200       -1.58900       -2.62600
O          3.02300       -1.90900       -3.80200
N          1.67400       -1.06800       -2.17900
C          0.51800       -0.81800       -3.03100
C          0.08400        0.64600       -2.88400
O         -1.08500        0.99400       -3.08800
N          1.07500        1.48600       -2.52300
C          0.92500        2.95100       -2.31900
C         -0.17800        3.57900       -3.17500
O         -0.38100        3.19500       -4.33100
N         -0.87000        4.56000       -2.58500
C         -1.97800        5.21800       -3.24900
C         -3.29900        4.53100       -2.93500
O         -4.37200        5.03500       -3.28100
N         -3.19200        3.37100       -2.27100
C         -4.34900        2.58300       -1.88300
C         -4.44800        2.41600       -0.38800
O         -4.99700        3.27300        0.30900
