24
./All_Backbone_XYZs/c6mers/PDBs/BIHTUH_1_fixed_backbone.pdb
C          5.41500        0.16300        3.03000
N          4.76400       -0.09900        4.30300
O          6.65900       -1.85900        3.20800
C          5.95600       -1.14800        2.47800
N          5.73100       -1.46600        1.20500
O          3.03500       -2.05200        0.81700
C          4.95400       -0.71500        0.22500
C          3.46300       -1.01100        0.35500
N          2.67400       -0.04600       -0.12700
O          0.86500        1.74800        1.23800
C          1.22200       -0.17200       -0.15400
C          0.62800        0.54800        1.05400
N         -0.19600       -0.15600        1.81000
O         -2.18700       -1.57400        3.12900
C         -0.89900        0.41200        2.95400
C         -1.52100       -0.73400        3.73700
N         -1.40600       -0.76600        5.05800
O          1.28400       -1.36900        5.20000
C         -0.53600        0.06700        5.88900
C          0.94100       -0.31200        5.69700
N          1.80100        0.60200        6.16400
O          3.40500        1.65100        4.09000
C          3.24000        0.37400        6.11800
C          3.78400        0.68100        4.73200
