24
./All_Backbone_XYZs/c6mers/PDBs/CGLPGL_fixed_backbone.pdb
C          0.81100       -0.64400        1.17600
N          1.79000       -1.70800        1.20400
O          2.52400        0.65500        0.04300
C          1.38800        0.60400        0.57600
N          0.62900        1.70000        0.62800
O          3.18400        4.13800       -0.01500
C          1.09800        2.94700       -0.00200
C          2.34700        3.54200        0.66000
N          2.43100        3.41300        1.97900
O          5.38600        3.60100        4.08100
C          3.48000        4.05600        2.76900
C          4.46400        3.11200        3.46600
N          4.20700        1.83500        3.41700
O          4.22700       -0.53300        2.26300
C          5.00400        0.82100        4.07800
C          4.91700       -0.45700        3.28400
N          5.62600       -1.50600        3.70900
O          3.37000       -3.40300        3.68600
C          5.60300       -2.78500        2.98200
C          4.16600       -3.28200        2.76500
N          3.87300       -3.55600        1.45900
O          0.33600       -3.33700        0.60900
C          2.53200       -4.05600        1.12900
C          1.47200       -2.97500        0.96700
