24
./All_Backbone_XYZs/c6mers/PDBs/CLPGDH_fixed_backbone.pdb
C          8.73300       12.50300        0.65800
N          9.09500       11.70000       -0.51000
O          7.81600       12.00500        2.80900
C          7.79000       11.77300        1.59700
N          6.92000       10.90600        1.03700
O          5.36500        7.78600        1.79500
C          5.97000       10.12800        1.82300
C          6.26600        8.64200        1.72900
N          7.56200        8.29500        1.66100
O          8.12700        6.85000       -0.67800
C          7.99400        6.91100        1.74200
C          8.33400        6.30300        0.40700
C          9.30400        4.30000       -0.65800
N          8.94100        5.10300        0.51000
O         10.22100        4.79800       -2.80900
C         10.24600        5.03000       -1.59700
N         11.11600        5.89700       -1.03700
O         12.67100        9.01700       -1.79500
C         12.06700        6.67600       -1.82300
C         11.77000        8.16100       -1.72900
N         10.47500        8.50800       -1.66100
O          9.91000        9.95300        0.67800
C          9.70200       10.50000       -0.40700
C         10.04300        9.89200       -1.74200
