24
./All_Backbone_XYZs/c6mers/PDBs/CYBGPP_fixed_backbone.pdb
C         13.58900        2.94900        2.42100
N         11.43100        2.99500        1.32700
O         13.16300        2.22000        3.24200
C         12.83000        3.42100        1.17100
N         14.79000        3.56400        2.58100
O         14.13100        4.93400        4.94600
C         14.66400        3.80800        4.99500
C         15.52400        3.38700        3.83300
N         14.59400        3.02400        6.06300
O         12.10100        3.23900        8.65000
C         12.58400        2.96500        7.56900
C         14.04600        3.43900        7.29300
N         11.94900        2.38900        6.58200
O         10.65700        1.60000        4.42600
C          9.94700        1.76000        5.42300
C         10.51700        2.06300        6.74700
N          8.59400        1.80200        5.27900
O          8.13700        3.68400        3.25800
C          8.33600        2.55600        2.98300
C          8.02500        1.43900        4.01800
N          8.84000        2.14300        1.82500
O         10.83400        3.90700       -0.64700
C         10.53800        3.30800        0.38600
C          9.06100        3.06300        0.73000
