24
./All_Backbone_XYZs/c6mers/PDBs/GAJDUQ_fixed_backbone.pdb
N          2.59700        2.77800        6.14700
C          3.43600        3.97400        6.32000
C          3.60900        4.40700        7.75000
O          4.06500        3.61300        8.57200
N          3.21700        5.63300        8.02400
C          3.33600        6.24500        9.33500
C          2.16900        5.92700       10.33200
O          2.15100        6.49100       11.41500
N          1.23900        5.09800        9.90600
C          0.10000        4.70000       10.78300
C         -0.02700        3.19900       10.86900
O          0.75600        2.48300       10.16700
N         -0.93800        2.62300       11.67800
C         -0.95700        1.22300       11.85800
C         -0.97500        0.43700       10.53500
O         -0.27200       -0.53600       10.32100
N         -1.93200        0.84100        9.63400
C         -2.12300        0.00800        8.47300
C         -1.14800        0.28400        7.29800
O         -1.04800       -0.58700        6.40800
N         -0.47400        1.41700        7.30400
C          0.34600        1.74000        6.13400
C          1.29400        2.85200        6.58300
O          0.89600        3.82800        7.20500
