24
./All_Backbone_XYZs/c6mers/PDBs/GAJFAY_fixed_backbone.pdb
N          3.97000       19.34700       12.85700
C          2.99800       19.50700       13.94200
C          2.83200       20.95500       14.30400
O          2.33300       21.74900       13.48200
N          3.17100       21.30700       15.56200
C          3.01000       22.66100       16.09300
C          4.14800       23.63100       15.73900
O          4.11900       24.78100       16.15700
N          5.21100       23.16300       15.04800
C          6.28600       23.99100       14.60200
C          6.34100       23.94700       13.12800
O          5.66800       23.18100       12.43900
N          7.18900       24.84300       12.51700
C          7.17800       24.93200       11.06400
C          7.38200       23.57100       10.32400
O          6.67200       23.29600        9.40100
N          8.34200       22.81500       10.80600
C          8.67400       21.60500       10.10100
C          7.79400       20.35300       10.47300
O          7.88100       19.34700        9.76100
N          7.00900       20.48700       11.54400
C          6.26700       19.28200       11.98800
C          5.20600       19.69500       12.96500
O          5.55000       20.39800       13.98000
