24
./All_Backbone_XYZs/c6mers/PDBs/GOKZOX_fixed_backbone.pdb
N          5.15100       11.18400       20.17600
C          6.10700       12.30900       20.12800
C          7.10600       12.19600       21.27600
O          7.67700       11.13000       21.48700
N          7.31800       13.30700       21.99800
C          8.21600       13.35000       23.14100
C          7.58400       12.90400       24.47200
O          8.24800       12.96000       25.50500
N          6.31200       12.48300       24.43000
C          5.57500       12.07000       25.60700
C          5.46700       10.54700       25.64000
O          5.96200        9.85400       24.74300
N          4.85200        9.94600       26.67600
C          5.02500        8.48900       26.80000
C          4.48700        7.64600       25.66200
O          5.01900        6.57000       25.40900
N          3.36900        8.09300       25.03300
C          2.75600        7.30300       23.97600
C          2.91300        7.90800       22.58200
O          2.60000        7.23900       21.59100
N          3.36600        9.16800       22.50200
C          3.34500        9.88700       21.23800
C          4.40800       10.97900       21.27300
O          4.52500       11.68100       22.28400
