24
./All_Backbone_XYZs/c6mers/PDBs/PHLEGL10_fixed_backbone.pdb
N          1.43900       31.48000        4.18400
C          0.88600       32.76400        3.74500
C          1.10600       32.97800        2.25200
O          2.22600       32.97100        1.73100
N         -0.02200       33.24000        1.59400
C         -0.05400       33.57000        0.18200
C         -0.01200       32.32900       -0.73700
O         -0.05600       32.52100       -1.96200
N          0.09200       31.15900       -0.14900
C          0.23200       29.93200       -0.90200
C         -0.72000       28.86500       -0.38500
O         -1.71100       29.12600        0.30800
N         -0.42800       27.60300       -0.73500
C         -1.32000       26.51700       -0.33600
C         -1.30300       26.30600        1.19500
O         -2.36800       26.20700        1.81900
N         -0.10600       26.19600        1.77500
C          0.04300       25.86000        3.19700
C          0.54700       27.02000        4.05400
O          0.26200       27.03200        5.26200
N          1.34800       27.92700        3.48400
C          1.83600       29.10100        4.18400
C          1.24400       30.33800        3.53900
O          0.70500       30.27700        2.42000
