24
./All_Backbone_XYZs/c6mers/PDBs/PROGLY20_fixed_backbone.pdb
N          5.08700        1.08300       18.24300
C          6.10100        2.10800       18.45000
C          7.39000        1.84200       17.76900
O          7.76100        0.70600       17.59400
N          8.08400        2.93300       17.40600
C          9.36700        2.68000       16.69800
C          9.09100        2.73900       15.24600
O          8.50400        3.71400       14.66700
N          9.50600        1.67300       14.49500
C          9.35100        1.70400       13.01000
C          8.00100        1.40900       12.48000
O          7.74800        1.46600       11.31400
N          7.04900        1.03600       13.41200
C          5.72100        0.52500       12.99400
C          5.67200       -0.93600       12.86900
O          6.77000       -1.55900       12.62500
N          4.50700       -1.63900       12.81300
C          3.29700       -0.97000       13.05000
C          2.99700       -0.43300       14.48900
O          2.03500        0.31800       14.63000
N          3.82500       -0.88700       15.41400
C          3.68100       -0.34400       16.75400
C          4.82000        0.70900       16.91200
O          5.31700        1.25700       15.97100
