24
./All_Backbone_XYZs/c6mers/PDBs/VAWTAQ_fixed_backbone.pdb
N          1.85700        2.10500       15.92600
C          2.25700        1.88500       14.55500
C          1.40800        2.72600       13.61800
O          0.56000        3.51200       14.02400
N          1.63900        2.55700       12.30200
C          2.63500        1.66900       11.68500
C          2.65400        2.11400       10.22800
O         -1.15300        1.93100       11.60800
N         -1.37500        4.19100       11.74300
C         -2.82400        4.26500       11.95800
C         -3.29400        3.82100       13.34700
O         -4.48800        3.97200       13.64300
N         -2.38200        3.30200       14.16800
C         -2.70200        2.70700       15.45300
C         -2.02900        3.52300       16.56100
O         -1.54200        4.62100       16.35100
N         -1.99800        2.95900       17.79500
C         -1.34200        3.68800       18.87700
C          0.18900        3.73600       18.68200
O          0.79900        4.79100       18.80700
N          0.77200        2.56100       18.41900
C          2.21600        2.42800       18.32100
C          2.74300        2.33300       16.89000
O          3.95300        2.41800       16.68000
