24
./All_Backbone_XYZs/c6mers/PDBs/VEGROO_fixed_backbone.pdb
N          3.51000       16.50400        9.40500
C          4.16400       15.26900        8.95300
C          4.41400       15.24500        7.44800
O          5.52700       14.92400        7.00400
N          3.36100       15.49700        6.65500
C          3.47000       15.33400        5.20900
C          3.86900       16.61200        4.47000
O          3.97200       16.57400        3.23200
N          4.10600       17.68200        5.18600
C          4.43500       18.95500        4.60300
C          3.72000       20.07100        5.34600
O          3.02000       19.84800        6.33700
N          3.89400       21.30400        4.83800
C          3.24700       22.42200        5.50300
C          3.98600       22.69900        6.81200
O          5.18500       23.01400        6.82800
N          3.23500       22.52500        7.91400
C          3.75800       22.59500        9.26900
C          3.63400       21.24300        9.98000
O          3.66200       21.19200       11.21600
N          3.53900       20.15600        9.20500
C          3.29000       18.85600        9.79000
C          3.92100       17.71100        9.01000
O          4.73500       17.89300        8.10200
