24
./All_Backbone_XYZs/c6mers/PDBs/VUGMEP_fixed_backbone.pdb
N          5.08000       11.11500       18.19200
C          6.19600       10.86200       17.25700
C          5.65000       10.46200       15.91000
O          4.72200       11.06700       15.38300
N          6.26100        9.41300       15.32900
C          5.77400        8.85000       14.07800
C          4.70600        7.73500       14.26600
O          4.26500        7.18500       13.27500
N          4.37600        7.45900       15.52200
C          3.36200        6.45700       15.82000
C          1.98300        7.18800       15.92200
O          1.84100        8.35400       15.70100
N          0.93600        6.38000       16.26900
C         -0.39500        6.95900       16.24800
C         -0.55800        8.05300       17.28700
O         -1.25100        9.04100       17.00800
N          0.02600        7.88300       18.48800
C         -0.23800        8.81100       19.56700
C          0.89600        9.80600       19.86000
O          0.71500       10.71900       20.64100
N          2.08900        9.55200       19.27800
C          3.26000       10.31800       19.63600
C          4.30000       10.09500       18.55000
O          4.43000        8.98000       18.06000
