24
./All_Backbone_XYZs/c6mers/PDBs/YOMNOE_fixed_backbone.pdb
N          6.80100        2.33900       22.68600
C          6.52400        1.50500       21.49200
C          7.00000        0.08900       21.59600
O          6.87100       -0.65500       20.60900
N          7.56500       -0.29800       22.73800
C          7.82200       -1.66900       23.02300
C          6.53400       -2.47400       23.30900
O          5.45300       -1.90700       23.38700
N          6.71200       -3.75500       23.51700
C          5.58200       -4.62000       23.80200
C          5.14500       -4.51500       25.25600
O          4.00500       -4.85800       25.61900
N          6.08700       -4.11300       26.16400
C          5.78000       -3.93400       27.56600
C          5.35400       -2.48900       27.79900
O          4.25300       -2.26500       28.34500
N          6.17700       -1.52000       27.43600
C          5.77000       -0.11900       27.43600
C          5.97800        0.38700       26.00800
O          7.05900        0.23800       25.43700
N          4.91700        0.98300       25.41100
C          4.94700        1.44500       24.03600
C          6.08700        2.42900       23.82800
O          6.35500        3.30800       24.65900
