24
./All_Backbone_XYZs/c6mers/PDBs/ZAJPAB_fixed_backbone.pdb
N        -12.59100       -2.47800      -10.43700
C        -13.50700       -1.71900       -9.58700
C        -12.91100       -1.40600       -8.20200
O        -13.57200       -0.66200       -7.44600
N        -11.79100       -1.93700       -7.87200
C        -11.17700       -1.66100       -6.59000
C        -10.06300       -2.65000       -6.41400
O        -10.25000       -3.86700       -6.72600
N         -8.88700       -2.21600       -5.96600
C         -7.67600       -3.06400       -5.94500
C         -8.03300       -4.42700       -5.25900
O         -8.64900       -4.45100       -4.19700
N         -7.68000       -5.53500       -5.90300
C         -6.78500       -5.73900       -7.02700
C         -7.43600       -5.77800       -8.41200
O         -6.72300       -6.10300       -9.34700
N         -8.71300       -5.45800       -8.51600
C         -9.41300       -5.49700       -9.80200
C         -9.78400       -4.11200      -10.22100
O         -9.56000       -3.09800       -9.53200
N        -10.37500       -4.00300      -11.41200
C        -10.71300       -2.67700      -12.01900
C        -11.58300       -1.87400      -11.08100
O        -11.36800       -0.62500      -10.95600
