54
../Data/first_8_molecules_RDKIT/extra_bio_ligands/1ln1_DLP-noHydrogens.xyz
C 49.37 49.704 19.914
C 50.801 50.05 19.475
C 51.897 49.65 20.467
C 46.906 52.377 18.504
C 46.235 53.471 17.688
C 48.256 54.033 16.44
C 46.06 54.69 15.66
C 46.673 52.443 15.516
C 54.378 49.296 19.855
C 55.618 49.789 19.072
C 55.285 50.079 17.579
C 55.721 51.48 17.084
C 55.484 51.746 15.572
C 56.675 51.303 14.715
C 56.289 50.836 13.325
C 55.649 49.407 13.279
C 54.665 49.197 12.075
C 54.223 47.965 11.681
C 54.669 46.707 12.387
C 53.888 46.625 13.712
C 53.719 45.49 14.41
C 54.275 44.139 13.958
C 53.886 43.033 14.92
C 54.844 42.998 16.082
C 54.823 41.663 16.782
C 54.18 41.683 18.179
C 50.65 50.248 16.802
C 51.097 49.697 15.45
C 50.09 48.745 14.792
C 50.448 47.303 15.066
C 49.586 46.708 16.17
C 49.414 45.19 16.022
C 49.978 44.382 17.184
C 49.787 45.069 18.496
C 51.095 45.202 19.251
C 51.13 45.626 20.532
C 49.843 45.863 21.265
C 49.549 44.624 22.053
C 49.189 44.694 23.327
C 49.074 46.039 24.004
C 47.789 46.744 23.668
C 46.978 46.989 24.92
C 46.783 45.728 25.729
C 45.31 45.386 25.923
N 46.815 53.638 16.331
O 51.076 49.603 18.067
O 53.125 50.072 19.761
O 54.436 48.242 20.545
O 49.947 51.303 16.836
O 46.234 49.831 20.358
O 47.613 51.318 21.844
O 48.444 50.766 19.453
O 46.391 52.233 19.823
P 47.174 51.04 20.4
