20
5bvs_EIC.pdb
C         29.12200        4.39200        0.48700
C         27.82200        3.67600        0.16400
C         26.62800        3.66400        1.16900
C         26.97300        2.82800        2.37200
C         27.44400        1.41800        1.95700
C         27.81200        0.52400        3.14900
C         26.71700       -0.22900        3.89600
C         27.25700       -1.21900        4.93100
C         27.08000       -2.67000        4.61000
C         27.32100       -3.14800        3.39900
C         27.78800       -2.22200        2.29200
C         28.38100       -3.00600        1.15800
C         29.59400       -2.77800        0.59800
C         30.62900       -1.69300        0.90300
C         31.36000       -1.54900       -0.42500
C         30.24600       -1.22600       -1.44000
C         29.66700        0.19000       -1.18700
C         28.15400        0.17400       -1.09600
O         29.60800        4.80000       -0.52600
O         29.69600        4.62700        1.59600
