209
6y13_stapledHelix.pdb
C          2.31000      -16.19000      -22.11500
C          3.12000      -15.41500      -21.11800
C          3.95000      -14.43300      -21.64600
C          4.65100      -13.58500      -20.79700
C          4.52300      -13.71900      -19.41900
C          3.69200      -14.70100      -18.89100
C          2.99100      -15.54900      -19.74000
C          2.10500      -16.68500      -18.99800
C          5.27100      -12.78700      -18.44300
C          4.37300      -14.11800      -23.13700
H          1.85500      -16.90800      -21.66900
H          2.89200      -16.55000      -22.78900
H          1.66600      -15.60900      -22.52500
H          5.20700      -12.92800      -21.15000
H          3.60600      -14.79100      -17.96900
H          1.35000      -16.90100      -19.56800
H          1.75000      -16.30500      -18.17900
H          3.58700      -14.02400      -23.69700
O          5.54500      -13.46600      -17.39400
H          4.88100      -13.29200      -23.17500
N          5.44100      -11.63900      -18.85700
C          6.10300      -10.50200      -18.18400
C          7.57400      -10.54400      -18.60300
O          8.08700       -9.59100      -19.12100
C          5.86000      -10.60400      -16.63700
C          4.42900      -10.37100      -16.27600
N          3.89000       -9.11600      -16.10100
C          3.37400      -11.20500      -16.02000
C          2.60400       -9.16700      -15.76800
N          2.24900      -10.42800      -15.71300
H          5.13200      -11.47800      -19.64400
H          5.70600       -9.66800      -18.51100
H          6.12700      -11.48400      -16.33000
H          6.41400       -9.94900      -16.18300
H          3.40000      -12.13400      -16.04500
H          2.05300       -8.43700      -15.60300
H          1.46500      -10.72600      -15.52200
N          8.17600      -11.73200      -18.39100
C          9.72300      -11.82700      -18.90900
C         10.61600      -12.14300      -17.70400
C         11.01900      -11.05200      -16.65400
C         12.14300       -9.95400      -16.50900
N         13.07100       -9.80200      -15.36100
C          9.54400      -13.05900      -19.84200
O          8.72700      -13.91200      -19.68600
H          7.77600      -12.39100      -18.01100
H         10.01100      -11.02400      -19.39300
H         11.44100      -12.51200      -18.05500
H         10.18000      -12.85700      -17.21200
H         11.10700      -11.56200      -15.83400
H         10.20200      -10.54100      -16.54700
H         12.70500      -10.04600      -17.29400
H         11.69100       -9.10100      -16.59800
H         12.64600      -10.00400      -14.60600
H         13.36100       -8.96100      -15.32300
H         13.76500      -10.35000      -15.46600
N         10.39500      -13.04700      -20.80500
C         10.61000      -14.00200      -21.98200
C         10.71100      -15.18700      -21.46600
O          9.97700      -16.13800      -21.97300
C         11.79600      -13.62100      -22.89800
C         12.02600      -14.75100      -23.94100
C         10.90800      -14.48100      -24.99100
C         11.14600      -15.28000      -26.27100
H         10.94200      -12.38400      -20.78400
H          9.79700      -13.98600      -22.52900
H         12.59700      -13.49800      -22.36400
H         11.60400      -12.78700      -23.35400
H         12.90700      -14.68500      -24.34100
H         11.92500      -15.62700      -23.53700
H         10.04700      -14.72400      -24.61500
H         10.88600      -13.53400      -25.20200
H         11.33100      -14.67700      -26.99500
H         10.36300      -15.79600      -26.47700
H         11.89400      -15.86900      -26.14700
N         11.56500      -15.43700      -20.41700
C         11.56300      -16.83400      -19.96200
C         10.25400      -17.40500      -19.42500
O          9.83200      -18.56200      -19.54300
C         12.65500      -16.94200      -18.89200
C         13.17700      -18.28500      -18.46400
C         13.74500      -19.05600      -19.48000
C         13.14300      -18.73400      -17.12200
C         14.24400      -20.27700      -19.13400
C         13.64800      -19.97500      -16.77500
C         14.18800      -20.69600      -17.82300
O         14.73200      -21.95800      -17.63000
H         12.05600      -14.82800      -20.05900
H         11.83800      -17.39000      -20.72000
H         13.41500      -16.42600      -19.20500
H         12.32300      -16.49700      -18.09700
H         13.78200      -18.74900      -20.35700
H         12.77700      -18.18800      -16.46500
H         14.62100      -20.82700      -19.78200
H         13.62600      -20.29900      -15.90400
H         15.21700      -22.14600      -18.26400
N          9.50100      -16.57300      -18.69100
C          8.20400      -17.11900      -18.16100
C          7.43400      -17.15800      -19.29700
O          6.63400      -18.21500      -19.25100
C          7.96200      -15.98600      -17.13100
C          6.41300      -16.29400      -16.60600
N          5.95200      -15.32200      -15.58100
H          9.74800      -15.76500      -18.53100
H          8.30600      -17.99900      -17.74100
H          8.02400      -15.11300      -17.54900
H          8.59800      -16.03400      -16.40000
H          5.81000      -16.26500      -17.36400
H          6.37800      -17.18900      -16.23200
H          5.28900      -14.83100      -15.91500
H          6.62800      -14.79100      -15.35000
H          5.66300      -15.76200      -14.86300
N          7.34700      -16.42900      -20.31400
C          6.50900      -16.56300      -21.44900
C          6.69500      -17.93500      -22.05900
O          5.71800      -18.63200      -22.31300
C          6.77300      -15.47600      -22.53200
S          5.38800      -15.50600      -23.70400
H          7.87300      -15.74900      -20.32400
H          5.57800      -16.48200      -21.15500
H          6.84100      -14.60200      -22.11800
H          7.60500      -15.66200      -22.99500
N          7.91600      -18.35000      -22.22200
C          8.21100      -19.72500      -22.66900
C          7.58200      -20.78900      -21.79000
O          7.01000      -21.71600      -22.25800
C          9.73900      -19.90200      -22.76300
C         10.34300      -18.96600      -23.83500
C         10.29600      -21.28400      -23.10000
C         11.85300      -19.08600      -24.00700
H          8.56800      -17.81100      -22.06600
H          7.84400      -19.82900      -23.57100
H         10.11800      -19.63800      -21.89800
H          9.91800      -19.15600      -24.68600
H         10.13000      -18.04900      -23.60000
H         10.14700      -21.87800      -22.36100
H         11.23800      -21.21700      -23.27200
H          9.85200      -21.62600      -23.88000
H         12.27100      -18.25900      -23.75700
H         12.05600      -19.28200      -24.92500
H         12.18400      -19.79400      -23.44800
N          7.81400      -20.70300      -20.46600
C          7.15500      -21.55600      -19.53800
C          5.62700      -21.68100      -19.73100
O          5.12800      -22.79200      -19.73400
C          7.33400      -21.08400      -18.07900
C          8.74800      -20.79900      -17.71100
C          8.88100      -20.79000      -16.18800
N          9.25500      -19.53000      -15.56700
C          8.64000      -18.74400      -14.69000
N          9.30500      -17.63500      -14.34000
N          7.43500      -19.06800      -14.22400
H          8.37400      -20.11800      -20.17500
H          7.54600      -22.45100      -19.61800
H          6.80800      -20.28000      -17.94300
H          6.98700      -21.76700      -17.48400
H          9.32900      -21.47800      -18.08800
H          9.01500      -19.93800      -18.07000
H          8.03200      -21.07100      -15.81100
H          9.54100      -21.45600      -15.94000
H         10.02500      -19.23600      -15.81500
H         10.07800      -17.47200      -14.68000
H          8.95900      -17.08600      -13.77600
H          7.05100      -19.79000      -14.49000
H          7.04200      -18.55600      -13.65600
N          5.02900      -20.53000      -19.87400
C          3.60500      -20.43000      -20.09100
C          3.20700      -21.18400      -21.32900
O          2.21000      -21.91700      -21.15100
C          3.09600      -19.01700      -20.09300
S          2.88400      -18.08800      -18.62100
H          5.49800      -19.81000      -19.83900
H          3.17400      -20.88200      -19.33600
H          3.69400      -18.50600      -20.66100
H          2.23500      -19.03200      -20.53900
N          3.82000      -20.98900      -22.44800
C          3.44700      -21.70400      -23.70800
C          3.78700      -23.17200      -23.64800
O          3.15400      -24.05800      -24.18800
C          4.15200      -20.94500      -24.83400
C          3.55400      -19.64900      -25.32400
C          2.30000      -19.61900      -25.94400
C          4.16600      -18.40100      -25.22900
C          1.79000      -18.44400      -26.38000
C          3.61700      -17.23700      -25.68500
C          2.40900      -17.22300      -26.26700
O          1.77200      -16.10900      -26.76000
H          4.46800      -20.42400      -22.47100
H          2.48000      -21.61700      -23.83700
H          5.05700      -20.75800      -24.53900
H          4.21900      -21.54400      -25.59400
H          1.81700      -20.40600      -26.05500
H          5.00400      -18.35800      -24.82900
H          0.95500      -18.46500      -26.78900
H          4.08900      -16.44100      -25.59000
H          1.44100      -16.28400      -27.49000
N          4.84300      -23.54100      -22.88600
C          5.16500      -24.95700      -22.73200
C          4.08300      -25.58700      -21.83100
O          3.82800      -26.75000      -22.01300
C          6.55100      -25.20800      -22.19700
H          5.32200      -22.94400      -22.49400
H          5.10300      -25.37700      -23.61500
H          7.13700      -24.50400      -22.48300
H          6.87500      -26.04900      -22.52900
H          6.52500      -25.23200      -21.23700
N          3.33700      -24.84100      -20.97300
H          2.67700      -25.19900      -20.55500
H          3.52700      -24.01100      -20.84900
