16
./Backbone_Most_Similar/c4mers/CEJSUF_fixed_backbone.pdb
N          5.59400       -0.79700       -0.74300
C          6.34800       -1.89200       -0.13200
C          6.10600       -2.17200        1.35700
O          6.67000       -3.11000        1.89000
N          5.28000       -1.33300        1.99700
C          4.87300       -1.54000        3.36900
C          3.34300       -1.57800        3.47000
O          2.72400       -0.85400        4.23100
N          2.70300       -2.48100        2.67000
C          3.25500       -3.68100        2.06300
C          3.59700       -3.60400        0.58900
O          4.13700       -4.56500        0.04000
N          3.31200       -2.46200       -0.05600
C          3.68600       -2.22000       -1.44500
C          4.48400       -0.91800       -1.54900
O          4.16400       -0.01400       -2.28100
