300
aligned by OTMol
O      -38.595704   -10.647615    21.406685
H      -38.115982   -10.331307    22.193388
H      -39.411620   -10.283008    21.639107
O      -43.480312    -9.345821    22.573200
H      -43.623751    -8.494370    23.095949
H      -44.183434    -9.239407    21.878415
O      -34.778035    -9.231607    20.296158
H      -35.034929    -9.253993    21.260120
H      -35.395013    -9.899365    19.878097
O      -44.621922   -12.449705    28.967255
H      -44.479133   -12.752229    28.014374
H      -43.757859   -12.190285    29.275900
O      -37.569186   -11.185120    29.575532
H      -38.517585   -11.117575    29.737717
H      -37.485663   -12.131429    29.332358
O      -37.022828   -10.884445    14.225781
H      -36.968382    -9.916865    14.253464
H      -37.076764   -11.091500    13.267799
O      -37.205513   -14.112252    14.659587
H      -36.467607   -13.434297    14.775913
H      -36.783934   -14.865605    15.141920
O      -40.703917    -3.670657    17.960748
H      -40.212769    -4.346770    18.451755
H      -40.608362    -2.838686    18.456087
O      -38.803162    -5.088597    23.910636
H      -38.937817    -5.757242    23.215833
H      -38.454735    -4.400690    23.351107
O      -33.844838   -16.540217    18.729563
H      -34.023401   -16.615220    19.683946
H      -32.868275   -16.666886    18.680869
O      -40.247626    -6.765382    21.781999
H      -40.348157    -7.058809    20.831619
H      -40.544710    -7.561187    22.303636
O      -36.623418    -5.647039    26.245858
H      -36.269337    -5.400448    25.382087
H      -37.036933    -4.870280    26.520026
O      -35.576853   -15.288841    17.082372
H      -34.942487   -15.768173    17.664239
H      -34.942633   -14.828923    16.501389
O      -42.282316   -14.603891    22.713288
H      -42.230786   -14.529743    21.744553
H      -43.094916   -14.063795    22.901858
O      -42.818641    -7.524968    27.820999
H      -43.326309    -6.786797    27.603789
H      -41.902299    -7.220155    27.731104
O      -40.794331    -7.672365    18.868982
H      -41.733563    -7.866362    18.841753
H      -40.191855    -8.437457    19.007560
O      -42.920977    -4.885178    22.065108
H      -42.373126    -5.135718    21.341006
H      -43.509932    -4.189725    21.661070
O      -46.052128    -8.602375    19.083983
H      -46.850852    -8.119363    18.927249
H      -46.194367    -8.827082    20.077233
O      -43.951932   -11.497791    19.517313
H      -44.323665   -11.879479    18.706907
H      -44.484560   -11.950348    20.202955
O      -35.474302    -2.855479    21.300212
H      -35.287468    -2.229621    22.024300
H      -34.710485    -2.816504    20.729495
O      -44.688041   -13.419346    23.212409
H      -45.032596   -13.945636    23.919081
H      -44.389055   -12.638018    23.734431
O      -41.060458   -18.403486    24.626078
H      -41.677927   -19.007337    24.116030
H      -40.281662   -18.963322    24.825962
O      -41.537802    -9.607880    26.502237
H      -41.058081    -9.291572    27.288940
H      -42.353718    -9.243273    26.734659
O      -37.194987    -7.871856    15.827687
H      -37.364823    -8.119543    14.881961
H      -38.067021    -7.459742    16.086467
O      -35.015610    -8.446663    23.085818
H      -35.937130    -8.146373    23.259173
H      -34.555938    -8.539057    23.987822
O      -42.971089   -15.163963    29.532875
H      -42.306636   -14.547730    29.288400
H      -42.550147   -15.531316    30.333805
O      -32.619061   -12.520855    20.444120
H      -33.175227   -12.658679    19.711357
H      -32.989655   -11.736519    20.901335
O      -35.451378    -6.319801    28.590625
H      -36.162853    -6.962292    28.753286
H      -35.595903    -5.948666    27.688722
O      -32.540115    -5.582773    25.129957
H      -32.997460    -4.843907    25.572897
H      -32.838187    -5.509233    24.154070
O      -37.273259    -7.164060    19.112570
H      -37.507083    -7.590096    18.292761
H      -36.601323    -7.746982    19.513983
O      -42.602529   -15.384715    19.838178
H      -42.950026   -16.140589    20.310337
H      -43.280120   -15.026264    19.232788
O      -39.839428   -15.768328    22.189216
H      -40.187735   -16.584327    21.821807
H      -40.580453   -15.374326    22.689278
O      -34.478171    -3.453896    26.726774
H      -35.057726    -3.851674    26.080249
H      -35.160023    -3.158068    27.337568
O      -40.895312   -15.440117    17.709676
H      -41.498365   -15.280686    18.406630
H      -40.050750   -15.580546    18.196799
O      -35.595290    -4.150315    24.116079
H      -35.703783    -3.183118    24.005861
H      -35.337406    -4.405433    23.224695
O      -39.566963    -4.989144    27.607249
H      -38.805581    -4.436213    27.679033
H      -40.313733    -4.507631    27.985723
O      -42.947384   -12.011152    15.903028
H      -42.217598   -12.350478    16.452481
H      -43.625650   -12.618264    16.099492
O      -35.784526    -5.054696    17.697918
H      -36.409925    -5.471731    18.289403
H      -35.691203    -5.758091    17.007508
O      -37.051082    -7.923832    24.830617
H      -36.973688    -7.140901    25.425948
H      -38.002892    -8.040645    25.025916
O      -32.316538   -13.934997    22.852970
H      -32.563423   -13.461606    22.018479
H      -32.533212   -13.315600    23.547104
O      -41.130575   -11.486863    20.238199
H      -42.102626   -11.499724    19.980069
H      -40.707990   -12.337728    19.983628
O      -39.137463    -4.958628    19.963636
H      -39.663107    -5.223290    20.758111
H      -38.603141    -5.742993    19.720271
O      -34.469770   -16.764464    21.255219
H      -35.363899   -16.408747    21.603247
H      -33.963215   -16.805690    22.069743
O      -44.236455   -14.513069    17.810737
H      -44.794858   -15.308601    17.613724
H      -44.929596   -13.869971    17.925349
O      -36.838065   -12.808016    27.045678
H      -36.965086   -13.654163    27.471684
H      -36.839673   -13.015922    26.090163
O      -45.375544   -14.712976    25.522065
H      -44.750699   -14.333178    26.187969
H      -46.012251   -15.197136    26.072435
O      -40.048722   -10.645959    16.517769
H      -40.331688    -9.880451    15.979077
H      -39.627407   -11.189876    15.889632
O      -34.856028    -6.532260    15.570807
H      -34.083891    -7.040759    15.817372
H      -35.497988    -7.202798    15.286108
O      -32.149423    -7.493788    15.377946
H      -31.687480    -6.876507    16.069950
H      -31.395259    -7.720340    14.869357
O      -39.523142   -18.641355    21.970210
H      -40.100625   -19.303361    21.599658
H      -39.853990   -18.468687    22.883421
O      -46.827015    -7.782784    23.670061
H      -46.736609    -6.951691    23.169935
H      -46.210421    -7.737002    24.397010
O      -33.400911    -4.296246    18.842127
H      -34.180312    -4.399341    18.273127
H      -33.449442    -5.113453    19.429676
O      -40.125179    -6.564109    16.105445
H      -40.702974    -6.057564    15.566521
H      -40.551003    -6.571617    16.947542
O      -32.574982    -9.861535    22.292207
H      -33.174313    -9.178851    22.643520
H      -31.819869    -9.478528    21.918192
O      -35.504137   -16.366199    24.484510
H      -36.074369   -15.889582    23.882238
H      -35.122856   -15.596559    24.936290
O      -42.015865   -11.732110    29.463310
H      -41.371822   -11.764691    28.703113
H      -41.419935   -11.629694    30.177469
O      -40.860891   -12.364561    13.863613
H      -40.263046   -12.923072    14.506184
H      -41.461345   -12.017581    14.516630
O      -35.302193   -10.486297    16.609280
H      -36.009613   -10.605470    15.951780
H      -35.300361   -11.351936    17.099676
O      -43.362169   -12.992189    26.463437
H      -42.387015   -13.147542    26.415261
H      -43.531371   -12.332012    25.772048
O      -32.324441   -10.752254    17.813279
H      -33.181993   -10.922484    18.150563
H      -32.074525   -11.589184    17.416890
O      -43.353598    -8.827716    18.636502
H      -43.487803    -9.735736    19.049239
H      -44.223079    -8.460304    18.801344
O      -32.932025   -10.076235    15.028644
H      -33.545742   -10.125795    15.876905
H      -32.691013    -9.172045    15.169215
O      -33.545259    -6.604508    20.196825
H      -34.168445    -7.318576    20.375350
H      -32.697823    -7.020880    20.351807
O      -33.710457   -11.782346    23.787630
H      -33.137862   -11.132053    23.293284
H      -34.362020   -11.260326    24.193062
O      -37.146516    -2.904960    27.354616
H      -37.185948    -2.280809    28.133650
H      -37.534636    -2.345736    26.644009
O      -43.500386    -6.965797    23.873679
H      -42.773010    -6.840394    24.505647
H      -43.317520    -6.280797    23.228178
O      -34.488342   -12.662388    18.362545
H      -35.231278   -12.406986    18.999273
H      -34.691866   -13.569230    18.047637
O      -39.374333   -13.613428    19.910758
H      -38.877410   -14.128300    19.272196
H      -39.234130   -14.078420    20.719531
O      -40.977468   -13.869819    25.529401
H      -40.454554   -14.618579    25.856166
H      -41.535207   -14.307438    24.892401
O      -32.870572    -8.356271    25.160404
H      -31.907552    -8.385278    25.482998
H      -32.974307    -7.367940    25.208318
O      -40.241966   -12.120663    27.591514
H      -39.334122   -12.377520    27.672207
H      -40.393672   -12.503953    26.709397
O      -34.456599   -10.330591    26.898621
H      -34.332915   -10.765909    27.763210
H      -33.658985    -9.729956    26.799184
O      -35.111769   -13.853419    25.122001
H      -34.853567   -13.094874    24.547215
H      -34.837305   -13.509999    25.969827
O      -34.393942   -12.857168    27.976038
H      -34.546151   -13.564876    28.634711
H      -35.270851   -12.452577    27.868580
O      -40.493045   -16.571896    26.345968
H      -41.385765   -16.605278    26.669335
H      -40.624296   -17.039921    25.537849
O      -37.088418   -15.091167    22.220456
H      -37.963657   -15.385843    22.460291
H      -37.139647   -14.116300    22.103759
O      -31.651946    -8.451940    19.347130
H      -31.885267    -9.343615    19.082542
H      -31.727026    -7.917660    18.550195
O      -36.600820   -10.777628    24.446080
H      -36.571277   -10.960254    25.396690
H      -36.760987    -9.825376    24.462469
O      -38.167333    -3.960814    15.137456
H      -38.505558    -4.367328    14.309819
H      -38.014667    -4.738228    15.838389
O      -37.385836    -9.087442    27.741164
H      -37.035565    -9.880325    28.157334
H      -36.675174    -8.877938    27.146379
O      -43.614547   -16.848883    24.243962
H      -43.083982   -17.052145    25.004468
H      -43.899855   -15.915236    24.440185
O      -40.791685    -8.946217    14.632025
H      -40.420282    -9.172492    13.793086
H      -40.461565    -8.013161    14.752233
O      -39.756901   -13.726893    15.922218
H      -40.063480   -14.226006    16.729395
H      -38.839401   -13.975884    15.756161
O      -41.278505    -6.389848    25.495839
H      -40.597371    -5.736106    25.854683
H      -40.694998    -7.112427    25.216734
O      -43.662859    -4.599216    18.397269
H      -42.861080    -3.994342    18.393376
H      -43.458686    -5.132198    17.635686
O      -47.160434   -11.985468    21.743439
H      -46.930718   -12.893422    21.567841
H      -47.827015   -11.821292    21.101372
O      -44.020116   -11.165919    24.438610
H      -44.373029   -10.481131    25.020358
H      -43.564074   -10.577564    23.798027
O      -43.167776   -16.525219    27.098193
H      -43.181549   -16.039352    27.955738
H      -43.807743   -17.243407    27.304112
O      -43.460208    -3.060894    25.619985
H      -43.247677    -3.208121    26.508883
H      -42.620783    -3.346035    25.183795
O      -43.480951    -8.474879    15.659118
H      -43.135493    -8.345368    16.519098
H      -42.522647    -8.652079    15.301250
O      -40.691808    -3.024753    24.876267
H      -40.083343    -3.671899    24.467486
H      -40.695701    -2.253201    24.288069
O      -45.172223    -9.225678    26.060402
H      -44.908904    -9.426561    26.954051
H      -45.145182    -8.175477    26.113769
O      -46.209332    -9.442714    21.804502
H      -46.349615   -10.357630    21.973232
H      -46.549606    -8.992950    22.587998
O      -38.253478   -15.374130    18.182387
H      -37.520682   -15.366221    17.606321
H      -37.941172   -16.098153    18.771757
O      -46.073207   -12.418016    17.946465
H      -46.036033   -11.485913    17.663427
H      -46.940644   -12.457123    18.349763
O      -39.729470    -8.520739    24.774710
H      -39.931586    -8.957689    23.927126
H      -40.304157    -8.969102    25.387145
O      -38.221721    -3.268148    21.791637
H      -38.604489    -3.714095    21.003027
H      -37.321383    -3.100474    21.459991
O      -45.255381    -6.455310    25.958135
H      -44.442482    -6.406767    25.436809
H      -45.649670    -5.561663    25.822590
O      -37.224597   -17.576084    19.746294
H      -36.408582   -17.112906    19.961938
H      -37.505089   -17.776888    20.615815
O      -39.951789    -8.002829    28.317474
H      -39.723623    -7.067645    28.060156
H      -39.223488    -8.519794    27.981674
