36
aligned by OTMol
O        1.353622    -0.776592     1.995857
H        1.777814    -0.476998     1.156836
H        1.856234    -1.576686     2.242715
O       -0.955041    -1.718298     0.836114
H       -0.190375    -1.367349     1.351133
H       -1.660699    -1.056584     0.970799
O        2.238768     0.075361    -0.470880
H        1.478293    -0.282079    -0.987651
H        2.090306     1.040652    -0.459187
O        0.065201    -1.123514    -1.653832
H       -0.361842    -1.419298    -0.814878
H        0.412605    -1.947668    -2.046165
O       -1.211537     1.402804    -1.398975
H       -0.436657     1.932734    -1.129191
H       -0.826841     0.589328    -1.774654
O       -2.368961     0.713440     0.925135
H       -2.055866     1.003480     0.026324
H       -3.288158     0.999657     0.991166
O        1.051687     2.601954    -0.115650
H        0.701430     2.382313     0.789348
H        1.337350     3.522725    -0.073267
O       -0.001863     1.714402     2.191003
H       -0.897208     1.414832     1.940678
H        0.471022     0.893087     2.420412
O        3.561782    -2.447803    -0.533648
H        3.371544    -1.493658    -0.598374
H        2.951137    -2.854992    -1.178500
O        1.368606    -3.607462    -1.966223
H        0.962111    -3.948925    -1.124386
H        1.334043    -4.340832    -2.592608
O        2.661602    -3.275145     1.854663
H        3.326274    -3.747347     2.371000
H        3.110420    -3.015147     1.005314
O        0.354965    -4.218046     0.441406
H        1.084584    -4.037360     1.065544
H       -0.311954    -3.539437     0.654579
