39
aligned by OTMol
O        4.236169     4.286398    -2.168965
H        3.875346     3.442180    -2.439770
H        3.698065     4.934368    -2.623729
O        0.824565    -1.251180    -2.816267
H        1.436018    -1.587420    -2.161057
H        0.189494    -0.741817    -2.312812
O        4.413671     0.248168    -1.028749
H        4.486477     0.693486    -0.184579
H        5.319132     0.085419    -1.293108
O        1.527044     3.607427     0.873045
H        2.416754     3.952482     0.798312
H        1.608039     2.861606     1.467539
O        0.616346     2.652351    -1.450376
H        1.462858     2.483763    -1.864171
H        0.833953     3.097707    -0.631513
O        2.059552     1.341727     2.245230
H        1.622339     0.623680     1.787535
H        1.846845     1.202899     3.168114
O        2.976593     1.954027    -2.540578
H        2.785196     1.500148    -3.361305
H        3.463544     1.314657    -2.020658
O        2.583634    -1.694903    -0.808425
H        3.057658    -2.517661    -0.687589
H        3.269704    -1.036875    -0.920403
O        4.146921     4.166987     0.480442
H        4.637790     4.913016     0.824999
H        4.235202     4.239895    -0.469886
O       -0.553500     0.338108    -1.104972
H       -1.499233     0.484498    -1.124771
H       -0.173402     1.206534    -1.237619
O        0.861280    -0.637267     0.987129
H        1.477349    -1.144229     0.458281
H        0.208357    -0.324419     0.360990
O        4.547339     1.590073     1.212393
H        4.547451     2.528987     1.026189
H        3.748864     1.446236     1.720310
O        2.224767     0.273206    -4.475767
H        1.623123     0.515706    -5.179649
H        1.736383    -0.360501    -3.950288
