42
aligned by OTMol
O        1.973631    -2.265905     1.400710
H        1.127058    -2.442830     0.948302
H        2.579380    -1.955392     0.698145
O        3.319061     1.265116     1.291971
H        2.769629     0.888758     2.006877
H        3.634884     0.478547     0.804689
O        2.119114     2.719268    -0.590955
H        2.512911     3.598627    -0.642345
H        2.574685     2.260252     0.167560
O       -3.382515    -2.173582    -0.278660
H       -3.570277    -1.413278     0.334583
H       -4.086285    -2.815454    -0.123092
O       -0.606802    -2.025054     0.287947
H       -0.738297    -1.269795     0.907792
H       -1.511450    -2.358864     0.130431
O        3.729990    -0.976622    -0.397635
H        4.531918    -1.374186    -0.758543
H        3.279801    -0.532721    -1.169077
O        1.630911    -0.211398     3.058890
H        1.774784    -1.044944     2.527877
H        1.849649    -0.439298     3.971034
O       -3.158904     1.970310    -0.822958
H       -2.196092     2.138959    -0.695598
H       -3.556572     2.833367    -0.990851
O       -2.883686    -0.407664    -2.517487
H       -3.188070    -1.094118    -1.893847
H       -3.141406     0.425319    -2.082895
O       -0.199044    -0.431073    -1.948582
H       -1.101044    -0.464496    -2.347953
H       -0.252458    -1.098360    -1.226909
O       -3.604291     0.026771     1.239448
H       -2.751755     0.122115     1.705498
H       -3.608580     0.784111     0.623521
O       -0.481751     1.791678    -0.402652
H       -0.344856     1.026467    -1.017782
H        0.350981     2.305086    -0.465412
O        2.442686     0.388798    -2.289787
H        1.520267     0.070000    -2.366963
H        2.356624     1.281875    -1.908213
O       -0.853363     0.243871     1.857358
H       -0.073440     0.206080     2.447264
H       -0.630562     0.905510     1.164586
