45
aligned by OTMol
O       -2.444055    -0.723683     3.314600
H       -1.506038    -0.706329     3.578029
H       -2.534369     0.045161     2.703067
O        1.037787     0.184375    -3.731678
H        0.102533     0.231936    -3.453771
H        1.407160     1.058830    -3.501500
O        0.084078    -3.134077     2.061992
H       -0.878579    -3.210813     1.913881
H        0.411118    -2.762528     1.217503
O        2.166733     2.477529    -2.499392
H        2.782303     3.151916    -2.811190
H        2.640412     1.989721    -1.772381
O        1.390895     0.633174     1.468089
H        0.803588     1.418030     1.412451
H        1.175477     0.196853     2.319177
O        2.556410    -1.356337    -2.178932
H        3.002785    -2.061406    -2.663011
H        1.999637    -0.867627    -2.845010
O        0.736784    -1.510142    -0.110999
H        1.004751    -0.704879     0.390725
H        1.377830    -1.590557    -0.847710
O       -0.450011     2.921096    -1.592584
H        0.452831     2.845524    -1.961126
H       -0.940828     2.168480    -1.975011
O       -2.701719    -2.714817     1.574313
H       -3.470779    -3.267815     1.758879
H       -2.698037    -2.008260     2.283106
O       -1.627736     0.547932    -2.710485
H       -1.895068    -0.071435    -1.990429
H       -2.392479     0.603068    -3.297169
O        3.309873     0.943023    -0.628417
H        3.256240     0.069385    -1.058620
H        2.808534     0.844911     0.204006
O       -0.312094     2.791404     1.053768
H       -0.213862     3.679301     1.418878
H       -0.365072     2.909312     0.064544
O       -2.617875     1.121848     1.295950
H       -1.913125     1.795513     1.292513
H       -2.345806     0.493777     0.598277
O       -1.897256    -0.990370    -0.509082
H       -0.943871    -1.228171    -0.415559
H       -2.363835    -1.669386     0.018262
O        0.458311    -0.964710     3.587080
H        0.367986    -1.833764     3.105979
H        0.925215    -1.171183     4.406575
