150
aligned by OTMol
Ne       0.073399     0.012404     0.962669
Ne       0.085664     0.017747     2.023845
Ne       0.344786    -0.873729     0.392987
Ne      -0.687482    -0.530909     0.402187
Ne      -0.680260     0.559127     0.396101
Ne       0.356290     0.888214     0.383160
Ne       0.990784     0.003028     0.379875
Ne      -0.239178    -0.875074    -0.526264
Ne      -0.873589     0.010111    -0.522934
Ne      -0.227704     0.886950    -0.536132
Ne       0.805570     0.543774    -0.546856
Ne       0.798497    -0.545428    -0.540837
Ne       0.045323     0.000944    -1.107041
Ne      -0.683422     0.584531     2.551720
Ne       0.365624    -0.888675     1.463440
Ne      -0.687366    -0.538748     1.470569
Ne      -0.682299     0.577649     1.465022
Ne       0.376214     0.914610     1.453657
Ne       1.025867     0.008754     1.450469
Ne       1.304919    -0.897655     0.866094
Ne       0.637754    -1.775890     0.869543
Ne      -0.413007    -1.444055     0.890661
Ne      -1.453024    -1.079939     0.890725
Ne      -1.460985     0.022455     0.888996
Ne      -1.438907     1.123710     0.877738
Ne      -0.394118     1.473429     0.874554
Ne       0.660609     1.791570     0.850064
Ne       1.316284     0.904893     0.856430
Ne       1.945541    -0.000510     0.843399
Ne       1.108284    -1.458901    -0.076185
Ne       0.046160    -1.796126    -0.060842
Ne      -1.010885    -1.445164    -0.049849
Ne      -1.660134    -0.539357    -0.046875
Ne      -1.652605     0.575400    -0.053778
Ne      -0.991859     1.472464    -0.066371
Ne       0.069569     1.809292    -0.080798
Ne       1.127171     1.458274    -0.092186
Ne       1.776380     0.552701    -0.095513
Ne       1.769222    -0.561817    -0.089485
Ne       0.510695    -1.460355    -1.016579
Ne      -0.545003    -1.778656    -0.991383
Ne      -1.200268    -0.891936    -0.997853
Ne      -1.829243     0.013733    -0.985039
Ne      -1.188355     0.911031    -1.008242
Ne      -0.521673     1.789270    -1.011346
Ne       0.529707     1.457069    -1.032708
Ne       1.570961     1.094263    -1.033784
Ne       1.579854    -0.008567    -1.037957
Ne       1.556647    -1.111070    -1.021697
Ne      -0.259948    -0.901311    -1.595916
Ne      -0.908886     0.004406    -1.592607
Ne      -0.248113     0.901609    -1.606030
Ne       0.809284     0.550424    -1.617238
Ne       0.802026    -0.563979    -1.611094
Ne       0.031743    -0.004865    -2.168054
Ne       0.092868     0.023475     3.122170
Ne       0.381147    -0.894616     2.551651
Ne      -0.688024    -0.536450     2.557944
Ne      -1.736841     0.591499     2.881156
Ne       0.390965     0.931908     2.541770
Ne       1.050385     0.014670     2.539034
Ne       1.342609    -0.909306     1.965382
Ne       0.663290    -1.807178     1.964046
Ne      -0.408704    -1.465433     1.990851
Ne      -1.465199    -1.094668     1.980256
Ne      -1.466649     0.023637     1.973770
Ne      -1.458811     1.147019     1.968815
Ne      -0.392630     1.505270     1.974829
Ne       0.685039     1.834285     1.944376
Ne       1.353441     0.928333     1.955554
Ne       1.998043     0.005305     1.937596
Ne       2.281757    -0.913896     1.344619
Ne       1.616686    -1.816646     1.357850
Ne       0.940602    -2.708058     1.361771
Ne      -0.125702    -2.369847     1.383508
Ne      -1.189967    -2.015069     1.395866
Ne      -2.244109    -1.645026     1.397745
Ne      -2.247049    -0.527494     1.392495
Ne      -2.241144     0.590223     1.390376
Ne      -2.224215     1.704347     1.380287
Ne      -1.163728     2.059723     1.373019
Ne      -0.095402     2.400437     1.357674
Ne       0.975077     2.724933     1.332424
Ne       1.639561     1.825103     1.338441
Ne       2.293159     0.913961     1.334884
Ne       2.932321    -0.004143     1.322034
Ne       2.101063    -1.491227     0.394943
Ne       1.417448    -2.385838     0.402290
Ne       0.340307    -2.727638     0.418077
Ne      -0.733993    -2.391300     0.436450
Ne      -1.795646    -2.016907     0.442337
Ne      -2.453407    -1.098537     0.446066
Ne      -2.465713     0.026774     0.444479
Ne      -2.438374     1.150737     0.432057
Ne      -1.769263     2.060115     0.419343
Ne      -0.702718     2.419924     0.409823
Ne       0.375547     2.742051     0.388210
Ne       1.448107     2.386292     0.376413
Ne       2.120056     1.483002     0.378967
Ne       2.759922     0.556739     0.369513
Ne       2.752695    -0.573269     0.375581
Ne       1.884804    -2.047790    -0.559514
Ne       0.817758    -2.407293    -0.550148
Ne      -0.261055    -2.729125    -0.528197
Ne      -1.333195    -2.372981    -0.516426
Ne      -2.004754    -1.469458    -0.518853
Ne      -2.644141    -0.542907    -0.509746
Ne      -2.636681     0.586706    -0.516731
Ne      -1.985080     1.504685    -0.536231
Ne      -1.301974     2.399221    -0.543214
Ne      -0.225422     2.741005    -0.558477
Ne       0.848993     2.405064    -0.576564
Ne       1.911206     2.031727    -0.581756
Ne       2.569525     1.113449    -0.585162
Ne       2.581865    -0.012453    -0.585598
Ne       2.555011    -1.138080    -0.572967
Ne       1.278814    -2.049251    -1.513066
Ne       0.209980    -2.388726    -1.497537
Ne      -0.860769    -2.712349    -1.472335
Ne      -1.524953    -1.812261    -1.478341
Ne      -2.177931    -0.900843    -1.475026
Ne      -2.816549     0.017477    -1.462694
Ne      -2.165791     0.927260    -1.485654
Ne      -1.500956     1.830181    -1.499063
Ne      -0.825172     2.721639    -1.502688
Ne       0.241172     2.383905    -1.523975
Ne       1.305383     2.030489    -1.535489
Ne       2.362059     1.663139    -1.537166
Ne       2.370309     0.544348    -1.540933
Ne       2.363025    -0.577138    -1.534809
Ne       2.340255    -1.695632    -1.518809
Ne       0.505701    -1.494941    -2.115270
Ne      -0.571360    -1.821922    -2.084914
Ne      -1.238771    -0.915434    -2.096158
Ne      -1.882401     0.007958    -2.078395
Ne      -1.226632     0.922768    -2.106675
Ne      -0.547426     1.820723    -2.105308
Ne       0.525165     1.479529    -2.131736
Ne       1.588990     1.111137    -2.128295
Ne       1.595870    -0.014778    -2.137114
Ne       1.574329    -1.140322    -2.115943
Ne      -0.277990    -0.919905    -2.683405
Ne      -0.936016    -0.001495    -2.680085
Ne      -0.265969     0.908331    -2.693658
Ne       0.806261     0.552178    -2.705117
Ne       0.798886    -0.577796    -2.698888
Ne       0.017833    -0.010887    -3.264706
Ne      -1.738850    -0.519709     2.890016
Ne      -2.514175     0.042732     2.307160
Ne      -2.516503    -1.070508     2.314484
