48
aligned by OTMol
O        1.301899     2.005845    -0.275628
H        1.636698     2.579903    -0.964540
H        0.404871     2.305632    -0.128314
O        0.440874    -0.036492     4.968703
H       -0.336930    -0.476612     4.625851
H        1.156697    -0.649700     4.801959
O        3.870280    -0.296426     2.387715
H        3.463904     0.561028     2.261767
H        4.802869    -0.107159     2.491101
O        2.716146     2.029713     2.009475
H        2.046610     2.210290     2.669282
H        2.242671     2.041413     1.177660
O       -1.031390    -2.800710     2.019341
H       -1.210603    -2.323118     1.209390
H       -1.329305    -2.214230     2.714696
O       -2.818860     0.687977     0.167812
H       -2.304241    -0.102084     0.002881
H       -3.574205     0.608335    -0.414719
O       -3.054261     0.980568     2.831064
H       -3.116812     0.861670     1.883339
H       -2.557463     1.791612     2.938910
O        2.882865    -1.900938     0.465122
H        3.357853    -1.333730     1.072488
H        2.436998    -2.534512     1.027278
O        2.405376    -1.664411     4.201152
H        3.028735    -1.168475     3.670395
H        2.105057    -2.367068     3.624685
O       -1.401383     3.120106     2.816407
H       -0.570808     2.867025     3.219303
H       -1.621932     3.956513     3.226302
O        1.060707    -0.592461    -0.972291
H        1.768163    -1.082947    -0.553768
H        1.229482     0.319936    -0.737176
O       -1.822145    -1.066956     3.914378
H       -2.276850    -0.318530     3.527942
H       -2.441426    -1.420409     4.552965
O       -1.155157     2.819120     0.155070
H       -1.261662     3.069114     1.072888
H       -1.790448     2.115471     0.022724
O        1.519993    -3.348046     2.296608
H        0.586719    -3.166657     2.185572
H        1.572453    -4.301176     2.367479
O       -1.313116    -1.460726    -0.311324
H       -1.515871    -2.043212    -1.043330
H       -0.440562    -1.120815    -0.509672
O        0.874765     2.336110     3.964561
H        0.705223     1.451042     4.287272
H        1.223844     2.805127     4.722452
