57
aligned by OTMol
O        0.832962     3.678902    -0.156460
H        1.161475     3.797634     0.734727
H        1.594728     3.832138    -0.715444
O       -1.672251    -0.414813    -1.367159
H       -1.010387     0.222746    -1.099414
H       -2.394093     0.115801    -1.704241
O        1.723067     1.412970     3.510147
H        2.529776     0.907224     3.608504
H        1.121558     0.820112     3.059662
O        2.592929     0.703958    -1.837835
H        2.473050     0.097996    -2.569047
H        3.226826     0.269255    -1.267361
O       -0.162914    -3.854130    -0.506690
H        0.754939    -3.890666    -0.237540
H       -0.451386    -4.766805    -0.500324
O        0.329614     1.097368    -0.488092
H        1.115032     0.950167    -1.015047
H        0.298058     2.045990    -0.364188
O        4.031648    -0.013693     3.475754
H        4.610078     0.381663     2.823569
H        4.573632    -0.092722     4.260763
O        2.801948    -1.688769     1.632495
H        1.946992    -1.260369     1.674391
H        3.193990    -1.526501     2.490519
O        4.450856     3.402731     0.872073
H        4.116701     3.440269    -0.024121
H        3.690667     3.597925     1.420017
O        3.862829    -2.892517    -1.776299
H        4.343237    -2.162934    -1.384957
H        3.289960    -2.482547    -2.424356
O        2.364749    -3.976204     0.187384
H        2.945569    -3.773064    -0.545837
H        2.576659    -3.319285     0.850546
O        2.124892     3.673975     2.215646
H        1.978613     4.342588     2.884818
H        1.951393     2.845370     2.662348
O        4.260634    -0.591939    -0.256565
H        4.884442    -0.061505     0.239153
H        3.737077    -1.033940     0.411832
O        5.509018     1.083204     1.491572
H        5.120921     1.931821     1.278353
H        6.449909     1.253710     1.534969
O       -1.453964    -1.928456     0.905202
H       -1.052427    -2.713746     0.533288
H       -1.797841    -1.453464     0.148656
O        0.546686    -0.328692     1.749580
H        0.447115     0.217418     0.969785
H       -0.231833    -0.885580     1.753571
O       -0.287873    -2.308667    -2.717733
H       -0.262869    -2.967097    -2.023415
H       -0.858303    -1.620448    -2.375395
O        2.142490    -1.511350    -3.354314
H        2.170085    -1.620034    -4.304924
H        1.261904    -1.792719    -3.106057
O        3.176863     3.336347    -1.528538
H        3.508210     3.751953    -2.324598
H        3.028967     2.424084    -1.777804
