57
aligned by OTMol
O        1.289458     3.861392     0.067875
H        1.638730     3.744244     0.951344
H        0.820345     4.694981     0.103853
O       -1.442509    -0.439909    -1.729471
H       -1.200270     0.390585    -1.319798
H       -1.447564    -1.070331    -1.009212
O        1.177918     1.313497     3.691748
H        0.530567     1.336342     4.396480
H        0.784081     0.754252     3.022145
O        2.090888     0.793515    -2.163214
H        2.544395     1.581967    -2.461387
H        2.767398     0.279976    -1.721802
O        0.509879    -4.014696    -0.363971
H        1.324278    -4.063253     0.136655
H        0.792160    -3.887058    -1.269652
O        0.192938     1.424390    -0.460531
H        0.851294     1.176338    -1.109584
H        0.362310     2.350706    -0.288822
O        3.688059     0.226694     3.582820
H        4.189403     0.965230     3.237203
H        2.875218     0.617485     3.903452
O        2.899297    -1.241663     1.521404
H        1.998069    -0.921567     1.560900
H        3.318758    -0.874319     2.299442
O        4.670762     2.414096     2.339614
H        4.832441     2.202702     1.420155
H        5.468743     2.857216     2.627891
O        3.994753    -3.049547    -1.610618
H        3.795435    -3.526850    -0.805207
H        3.226818    -3.184512    -2.165859
O        2.942459    -3.801032     0.803992
H        3.294161    -4.356895     1.499372
H        2.956194    -2.917808     1.172718
O        2.215511     3.525409     2.499589
H        3.132939     3.252530     2.489900
H        1.764791     2.834650     2.985320
O        3.955306    -0.477375    -0.799943
H        4.237237    -1.293299    -1.213483
H        3.617492    -0.745646     0.054541
O        5.125293     1.931375    -0.211803
H        4.955709     1.023070    -0.461714
H        4.555496     2.447549    -0.782003
O       -1.137373    -2.101218     0.392854
H       -0.525096    -2.783312     0.116996
H       -1.889955    -2.580288     0.739761
O        0.436714    -0.226261     1.583223
H       -0.229079    -0.890594     1.405426
H        0.340396     0.406529     0.871512
O        0.538052    -1.061345    -3.451642
H        1.115846    -0.338688    -3.206379
H       -0.279894    -0.882715    -2.987650
O        1.561810    -3.378890    -2.768544
H        1.439473    -3.926214    -3.544239
H        1.205219    -2.526269    -3.017765
O        3.268566     3.261884    -1.677548
H        3.500813     4.050216    -2.168287
H        2.574478     3.545397    -1.082490
