54
aligned by OTMol
C       48.577760    50.010515    17.003787
C       49.620658    50.272715    15.891088
C       49.646561    51.745920    15.726123
C       48.118102    51.128893    21.617780
C       48.034437    52.112256    22.753131
C       49.620562    52.138044    24.509944
C       47.367471    51.782632    25.034616
C       48.583813    50.090843    23.950529
C       51.823404    52.174075    14.954728
C       52.525293    52.111287    13.631261
C       54.009364    51.937624    13.822519
C       54.811365    51.969209    12.580377
C       54.560502    51.006246    11.514906
C       54.660030    49.561290    11.647296
C       55.909135    48.889913    12.048593
C       56.304142    49.185544    13.461525
C       57.607837    48.498706    13.839630
C       57.605085    47.026109    13.661778
C       56.556875    46.262077    14.427060
C       56.679127    44.779446    14.146120
C       55.613408    43.952145    14.873476
C       55.662288    44.084947    16.348639
C       54.721744    43.283816    17.159806
C       53.271902    43.447701    17.079218
C       52.538623    43.206385    15.814523
C       52.746336    41.807079    15.253404
C       51.164078    48.611336    15.560494
C       51.670306    47.496294    16.402355
C       52.931135    47.777059    17.119240
C       53.025913    48.887391    18.060913
C       52.166704    48.911483    19.270124
C       52.393343    47.690639    20.139492
C       51.609702    47.779546    21.410456
C       51.744353    46.646080    22.327659
C       51.290556    45.300590    21.990108
C       49.877485    44.972724    21.822906
C       48.986222    45.610265    20.854554
C       47.582460    44.947845    21.040774
C       46.618383    45.603185    20.091690
C       45.249771    44.969660    20.287835
C       44.794076    45.152524    21.717042
C       44.676681    46.574126    22.155134
C       44.210593    46.535663    23.617437
C       44.056756    47.916768    24.184311
N       48.399862    51.526445    24.023164
O       50.843411    49.775250    16.252097
O       50.468860    52.326723    14.811451
O       52.241442    53.470424    15.513635
O       52.187508    48.986431    14.668380
O       46.105039    50.106217    18.579323
O       47.699979    49.138126    20.000695
O       48.967302    50.646074    18.154649
O       47.764596    51.703582    20.418013
P       47.611662    50.609134    19.177215
