60
aligned by OTMol
O        0.678177     0.024344    -1.233301
H        0.433065    -0.085275    -0.314532
H        1.277791    -0.700587    -1.409852
O        1.461907     2.549182    -1.428802
H        1.213832     1.625284    -1.395574
H        2.185747     2.580964    -2.054324
O        2.053779    -2.180797    -1.739456
H        1.817520    -2.877953    -1.127584
H        1.795649    -2.517047    -2.597674
O       -0.202198    -5.179503    -2.365153
H        0.343403    -4.736672    -3.015116
H        0.194129    -4.952055    -1.524068
O       -2.723986     1.137183     0.781199
H       -3.475929     0.552945     0.878561
H       -2.795759     1.473906    -0.111941
O       -4.533336    -0.838268     0.659582
H       -4.046426    -1.433946     0.090093
H       -4.757450    -1.367574     1.424984
O       -2.598685    -4.134221    -2.714466
H       -1.771506    -4.583571    -2.540996
H       -3.218011    -4.837875    -2.908212
O       -0.869658     3.895042    -1.722979
H       -0.877105     4.374599    -0.894606
H       -0.001884     3.492724    -1.759580
O       -2.717053     2.030182    -1.761742
H       -2.046209     2.712038    -1.797417
H       -3.478734     2.420224    -2.190625
O       -1.689811    -0.392815    -2.363383
H       -0.799452    -0.196131    -2.072165
H       -2.142884     0.449928    -2.336159
O        0.505030     1.841352     2.809095
H        0.999517     2.408495     2.217434
H        1.059494     1.762724     3.585381
O        1.633320     3.509427     1.101711
H        0.986740     4.208217     1.002419
H        1.736501     3.150911     0.220205
O        0.957102    -4.102195    -0.177189
H        1.429389    -4.615325     0.478460
H        0.280231    -3.642636     0.319686
O        0.955387    -3.284708    -3.961604
H        0.135091    -2.832143    -4.157896
H        1.404152    -3.344677    -4.804958
O       -1.434881    -2.228404    -4.341482
H       -1.570904    -1.437007    -3.820501
H       -2.042639    -2.867758    -3.969880
O       -1.888209     3.158425     2.388924
H       -1.169012     2.675657     2.796260
H       -2.383194     2.493273     1.910599
O       -0.708509     4.886432     0.784337
H       -0.970003     5.772836     1.033616
H       -1.219079     4.315270     1.358204
O       -2.752367    -2.246626    -0.781082
H       -2.387819    -1.559209    -1.338571
H       -2.897275    -2.984386    -1.373487
O       -0.904799    -2.767093     1.101094
H       -1.649129    -2.667303     0.507590
H       -0.646769    -1.870558     1.315283
O       -0.412237    -0.111092     1.186545
H       -1.261429     0.309574     1.051842
H        0.000352     0.398926     1.883599
