37
aligned by OTMol
O       -1.096951    -0.273580    -0.803329
C       -1.927217     0.267134    -0.109580
O       -2.892426     1.072170    -0.593516
H       -2.730719     1.131816    -1.547127
C       -2.037080     0.139707     1.396578
H       -3.052043    -0.176287     1.631764
H       -1.876873     1.121314     1.836663
N       -1.092542    -0.805146     1.919871
H       -0.132678    -0.508480     2.046054
C       -1.277552    -2.120477     1.597201
O       -2.341053    -2.569854     1.196435
C       -0.014371    -2.961326     1.709751
H       -0.286883    -4.007268     1.614517
H        0.491831    -2.787791     2.657266
N        0.891690    -2.590722     0.639154
H        0.706570    -2.882759    -0.311446
C        1.701558    -1.519787     0.754035
O        1.863579    -0.901642     1.810022
C        2.439247    -1.153331    -0.532162
N        1.627351    -1.554901    -1.676517
H        0.818050    -0.944949    -1.752226
H        2.159780    -1.471970    -2.533074
H        3.340982    -1.773316    -0.542383
C        2.898037     0.314839    -0.496937
H        3.468841     0.468753     0.418335
H        3.571989     0.466704    -1.342021
C        1.773929     1.308699    -0.576147
C        1.206570     1.851654     0.582567
H        1.597552     1.551121     1.546258
C        0.165903     2.774784     0.501164
H       -0.244923     3.203587     1.406063
C       -0.329162     3.169982    -0.741758
H       -1.132961     3.890553    -0.802831
C        0.232217     2.641647    -1.902339
H       -0.129498     2.956186    -2.872608
C        1.276734     1.722461    -1.815777
H        1.727522     1.339472    -2.722919
