37
aligned by OTMol
O       -4.017321     0.140980    -0.679452
C       -2.923262    -0.525132    -0.265494
O       -1.797530    -0.244574    -0.613828
H       -3.701188     0.833254    -1.279508
C       -3.300786    -1.634361     0.696717
H       -3.710011    -1.178614     1.596127
H       -4.085983    -2.225934     0.232338
N       -2.181991    -2.470193     1.021815
H       -1.480181    -2.109705     1.660751
C       -1.709041    -3.296216     0.039947
O       -2.347954    -3.586488    -0.961044
C       -0.274936    -3.747798     0.269462
H       -0.106840    -4.023135     1.309594
H       -0.063615    -4.589842    -0.380072
N        0.604893    -2.643544    -0.062471
H        0.391881    -0.099786    -1.451614
C        0.786693    -1.615635     0.792117
O        0.394903    -1.626757     1.961508
C        1.534002    -0.428352     0.192012
N        1.338194    -0.415034    -1.255652
H        0.821198    -2.431585    -1.028631
H        2.598778    -0.601671     0.374831
H        1.963995     0.261951    -1.675819
C        3.184542     2.296414     0.826637
H        3.620071     1.671350     1.597009
H        1.298095     0.724726     1.986447
C        1.881427     2.036369     0.389961
C        3.920127     3.352201     0.294106
H        4.924614     3.542868     0.649125
C        3.361940     4.165915    -0.689755
H        3.930647     4.988749    -1.102562
C        2.064698     3.920573    -1.132702
H        1.621539     4.551719    -1.891335
C        1.333014     2.861372    -0.596548
H        0.320697     2.675833    -0.934438
C        1.120970     0.858287     0.920701
H        0.048724     1.000794     0.778719
