37
aligned by OTMol
O       -2.441419    -0.491853     0.501241
C       -3.378727    -1.240882     0.344325
O       -4.664540    -0.839765     0.381682
H       -4.644487     0.112881     0.556543
C       -3.285691    -2.727643     0.064620
H       -3.702776    -2.917939    -0.921887
H       -3.902633    -3.245081     0.795980
N       -1.934686    -3.203202     0.141255
H       -1.299872    -2.953297    -0.611658
C       -1.361424    -3.266606     1.381484
O       -2.004087    -3.267394     2.422457
C        0.158871    -3.244872     1.344796
H        0.546724    -3.882787     0.552581
H        0.540589    -3.566515     2.307861
N        0.579798    -1.881048     1.084545
H        0.569310    -1.191908     1.826982
C        0.528722    -1.359818    -0.158556
O        0.330076    -2.027643    -1.177205
C        0.787364     0.134396    -0.224211
N        0.418559     0.767143     1.037401
H       -0.593782     0.809115     1.103461
H        0.762564     1.720913     1.047481
H        0.216981     0.493823    -1.084887
C        2.279970     0.356563    -0.505995
H        2.851577    -0.052083     0.328356
H        2.538599    -0.203984    -1.405833
C        2.587767     1.814527    -0.684458
C        3.119981     2.571583     0.362204
H        3.359844     2.082766     1.299041
C        3.351454     3.937876     0.210276
H        3.768555     4.508263     1.029954
C        3.052551     4.565513    -0.996191
H        3.234851     5.624177    -1.118257
C        2.522581     3.819829    -2.049536
H        2.295384     4.299551    -2.991459
C        2.291584     2.456065    -1.892097
H        1.884867     1.878338    -2.713295
