37
aligned by OTMol
O       -3.064659     1.420655     1.993210
C       -3.058037     0.713281     1.011591
O       -3.182629     1.206826    -0.223207
H       -3.069373     0.468544    -0.871881
C       -2.918398    -0.802541     1.092850
H       -2.887046    -1.076458     2.141178
H       -3.790217    -1.262287     0.622862
N       -1.715488    -1.303874     0.452091
H       -0.956274    -1.708019     1.000512
C       -1.596046    -1.355614    -0.880597
O       -2.440678    -0.894466    -1.661884
C       -0.359275    -2.080730    -1.394367
H       -0.419083    -3.122853    -1.076129
H       -0.392956    -2.035761    -2.477452
N        0.902754    -1.533348    -0.943083
H        1.495140    -0.999330    -1.564709
C        1.395741    -1.748906     0.288368
O        0.766629    -2.316375     1.189513
C        2.800219    -1.221990     0.522883
N        3.497699    -1.038698    -0.747835
H        3.773495    -1.939971    -1.123041
H        4.355344    -0.520940    -0.593087
H        3.274112    -1.950309     1.186858
C        2.711670     0.110961     1.287509
H        3.731914     0.476891     1.431026
H        2.304388    -0.106376     2.275675
C        1.867434     1.152809     0.610736
C        2.338624     1.865999    -0.497173
H        3.341664     1.689621    -0.862229
C        1.533854     2.808495    -1.133186
H        1.915417     3.350227    -1.988699
C        0.248202     3.062789    -0.659666
H       -0.376379     3.799068    -1.146478
C       -0.227999     2.376741     0.455737
H       -1.212980     2.586905     0.845277
C        0.575608     1.422255     1.077827
H        0.202611     0.895777     1.948001
