37
aligned by OTMol
O       -3.227799     1.423421    -1.230511
C       -3.069046     0.347874    -0.701334
O       -3.242854    -0.801707    -1.359835
H       -3.129811    -1.550479    -0.725179
C       -2.683563     0.206449     0.769472
H       -2.480138     1.199407     1.154628
H       -3.538021    -0.217939     1.301619
N       -1.516129    -0.624285     1.007974
H       -0.653363    -0.209994     1.351614
C       -1.562847    -1.960376     0.896299
O       -2.559059    -2.574162     0.487618
C       -0.293015    -2.693061     1.301329
H       -0.096800    -2.507061     2.359121
H       -0.469088    -3.751829     1.144343
N        0.864218    -2.278673     0.537081
H        1.261728    -2.863013    -0.184236
C        1.557054    -1.165973     0.851714
O        1.213763    -0.386758     1.744071
C        2.762130    -0.899460    -0.031411
N        3.282587    -2.152360    -0.579016
H        3.894952    -1.957221    -1.360888
H        3.841182    -2.638725     0.113425
H        3.472706    -0.346620     0.588805
C        2.329687    -0.003712    -1.204975
H        3.226103     0.214218    -1.794480
H        1.654263    -0.580261    -1.839998
C        1.672823     1.273756    -0.772744
C        2.414138     2.268114    -0.128362
H        3.475985     2.124288     0.032742
C        1.805115     3.440636     0.307099
H        2.392161     4.199762     0.804675
C        0.440766     3.635402     0.097156
H       -0.033585     4.549433     0.429381
C       -0.309506     2.658052    -0.554188
H       -1.364882     2.800321    -0.742212
C        0.308035     1.482441    -0.982445
H       -0.274890     0.729095    -1.499350
