37
aligned by OTMol
O       -3.067345     1.772007     1.018318
C       -3.036496     0.711379     0.437493
O       -3.011385     0.630654    -0.896564
H       -2.967965    -0.321480    -1.157712
C       -3.022391    -0.627271     1.166859
H       -3.053692    -0.427430     2.232723
H       -3.909013    -1.195219     0.877851
N       -1.843162    -1.422312     0.877418
H       -1.063841    -1.474197     1.532577
C       -1.692452    -2.059203    -0.293734
O       -2.502025    -1.970818    -1.226328
C       -0.438881    -2.914997    -0.396070
H       -0.503542    -3.473467    -1.323916
H       -0.402502    -3.605749     0.447802
N        0.774689    -2.123504    -0.409800
H        1.360973    -2.053158    -1.230277
C        1.308902    -1.611259     0.710383
O        0.759220    -1.659629     1.816860
C        2.686372    -0.978355     0.532933
N        3.082857    -0.980247    -0.874320
H        2.843325    -0.084954    -1.292561
H        4.084988    -1.082933    -0.958131
H        3.360968    -1.640034     1.080055
C        2.715648     0.405216     1.211731
H        3.759027     0.708211     1.318453
H        2.287235     0.300483     2.207614
C        1.971318     1.429980     0.404531
C        2.656690     2.228912    -0.518598
H        3.735047     2.150864    -0.587561
C        1.974638     3.139903    -1.323303
H        2.522309     3.753193    -2.026029
C        0.592656     3.263803    -1.212220
H        0.059340     3.973316    -1.830116
C       -0.104266     2.484121    -0.289358
H       -1.174512     2.592723    -0.181068
C        0.582472     1.570741     0.507515
H        0.039796     0.979708     1.235552
