37
aligned by OTMol
O       -1.496081     4.158874    -0.441688
C       -2.529605    -1.740767     1.146248
O       -0.268410     2.846003    -1.801419
H       -3.519293     0.103973     1.636149
C       -2.773135    -0.376089     1.018381
H       -3.087692    -2.328421     1.863104
H       -1.415072    -3.424916     0.414411
N        1.614194    -2.898413     0.603222
H       -2.279594     1.417164    -0.052129
C       -2.064386     0.363348     0.070986
O        2.259364     2.277877     2.323803
C       -1.574977    -2.355260     0.336204
H        0.756391    -2.673386     1.097578
H       -0.043665    -3.318647    -1.621163
N        1.419528     2.165526     0.216538
H        0.338573    -1.767788    -2.381669
C        0.226391    -2.278233    -1.425762
O        2.007724    -0.046539    -1.576968
C        1.592605    -2.265208    -0.714100
N        2.710913    -0.518529     0.531685
H        2.309017    -2.793304    -1.347772
H        1.638855    -3.904334     0.506646
H        2.734448    -1.251377     1.226194
C        2.115102    -0.831656    -0.631077
H        4.057204     0.693974     1.545147
H        3.800582     1.093787    -0.171532
C        2.292473     1.814455     1.188442
C        3.319082     0.777093     0.754056
H        1.450813     1.699070    -0.683901
C        0.335994     3.052708     0.527868
H        0.701925     4.000671     0.923792
C       -0.474125     3.318074    -0.707887
H       -1.962078     4.281192    -1.282795
C       -1.100813    -0.248596    -0.727079
H       -0.325251     2.636323     1.293248
C       -0.841082    -1.618574    -0.601751
H       -0.560919     0.328924    -1.466010
