37
aligned by OTMol
O        0.335189    -1.529073    -1.731364
C       -1.746760     0.028825     0.454152
O        2.107036     3.772790    -1.773969
H       -2.183239     1.648001     3.423059
C       -0.627950     2.179481     0.456062
H       -1.352939    -3.283002    -0.403966
H       -2.125935    -1.137632    -1.300146
N       -0.825698    -2.650335     1.499177
H       -3.050066    -1.632023     0.125056
C       -2.183301     0.286715     1.759524
O        1.130303     1.948193    -2.666446
C       -2.078392    -1.270899    -0.219925
H       -0.858064    -1.784035     2.027692
H       -1.575478    -3.231831     1.847751
N        1.385850    -2.252655     0.149116
H       -0.643016     0.821115    -1.210842
C        0.293650    -1.997193    -0.590405
O        4.021051    -0.229493     0.594095
C        3.153537    -0.578536    -0.199940
N        2.486566     0.285191    -0.999320
H        1.216208    -2.636711     1.067639
H        2.739512    -2.309426    -1.414799
H        3.424035    -2.644384     0.195146
C        2.723151    -2.030289    -0.360919
H        2.464827     2.058595     0.131950
H        1.730778    -0.050429    -1.587107
C        2.721267     1.694260    -0.867012
C        1.896212     2.443156    -1.873113
H        1.547226     4.179296    -2.452896
C       -1.833520     1.466834     2.415311
H        3.773714     1.936185    -1.019078
C       -0.965541     0.994020    -0.192453
H       -0.047870     2.933209    -0.061046
C       -1.030264    -2.358916     0.081439
H       -0.783402     3.336869     2.264391
C       -1.049113     2.415483     1.765098
H       -2.824561    -0.432357     2.257088
