37
aligned by OTMol
O       -3.916994     1.519215     0.801742
C       -2.960148     0.609305     1.082296
O       -2.356813     0.579385     2.129231
H       -3.992166     2.074397     1.592752
C       -2.753112    -0.323553    -0.075595
H       -2.484888     0.269231    -0.954851
H       -3.699238    -0.810999    -0.313373
N       -1.739742    -1.285032     0.251066
H       -1.178991    -1.166809     1.088282
C       -1.413800    -2.240433    -0.649409
O       -1.996792    -2.385703    -1.718950
C       -0.244005    -3.118251    -0.225439
H       -0.413373    -3.505378     0.779696
H       -0.176682    -3.939537    -0.931495
N        1.004919    -2.384671    -0.227239
H        1.658404    -2.434828    -0.995616
C        1.382870    -1.626123     0.815264
O        0.696584    -1.466126     1.828211
C        2.761513    -0.983402     0.669591
N        3.249719    -1.116814    -0.701762
H        4.258030    -1.048069    -0.721577
H        3.419296    -1.570844     1.314498
H        3.747019     0.832244     1.254470
C        2.721758     0.456997     1.214425
H        2.893480    -0.347822    -1.260866
H        2.329084     0.423250     2.230085
C        1.880394     1.357452     0.357146
C        2.440403     2.026561    -0.738186
H        3.505879     1.945043    -0.922486
C        1.655858     2.820786    -1.574118
H        2.108496     3.331377    -2.413818
C        0.295791     2.967354    -1.315778
H       -0.315549     3.590061    -1.954016
C       -0.268300     2.324062    -0.213677
H       -1.318510     2.467115     0.006767
C        0.513286     1.519301     0.611755
H        0.071322     1.030255     1.469972
