37
aligned by OTMol
O        0.606453     2.731179    -2.026200
C       -2.778065     0.589531     0.900431
O       -0.228761     4.444268    -0.823113
H       -3.371203     1.309653     1.446745
C       -2.936126    -0.773080     1.137737
H       -2.329943    -2.757431     0.581843
H       -3.655273    -1.118439     1.868652
N        0.718504    -3.092361     0.871839
H       -0.936998    -3.210169    -1.390552
C       -2.176889    -1.696312     0.419206
O        2.769123     1.815711     2.241661
C       -0.386722    -2.275631    -1.258613
H        1.460705    -3.348543    -1.047461
H       -0.051281    -2.594736     1.308476
N        2.448592    -1.132403     0.679178
H       -0.111196    -1.898106    -2.242715
C        0.909366    -2.589577    -0.487401
O        1.959182    -0.656852    -1.488308
C        1.816134    -1.359647    -0.484184
N        1.982413     1.771311     0.111489
H        0.458136    -4.068844     0.849482
H        4.059796    -0.269260     1.663440
H        2.246049    -1.782324     1.425194
C       -1.241582    -1.276268    -0.534645
H        3.968487     0.043744    -0.087668
H        1.901052     1.242377    -0.750462
C        3.394892    -0.046981     0.835157
C        2.695961     1.269798     1.145519
H        0.418695     2.801865     1.069589
C        1.189111     2.950432     0.307476
H        1.800187     3.786102     0.650312
C        0.517655     3.330560    -0.980332
H       -0.620529     4.623198    -1.691489
C       -1.865849     1.018513    -0.064186
H       -1.769233     2.076376    -0.272974
C       -1.097598     0.096183    -0.770553
H       -0.398246     0.435164    -1.523569
