37
aligned by OTMol
O       -2.353944     0.624261     2.120154
C       -2.959385     0.627510     1.074013
O       -3.918723     1.528341     0.773387
H       -3.993537     2.102393     1.550847
C       -2.752615    -0.332732    -0.061321
H       -3.698159    -0.827781    -0.285307
H       -2.487379     0.239104    -0.955234
N       -1.736555    -1.283880     0.286535
H       -1.174423    -1.144206     1.119512
C       -1.410329    -2.260163    -0.591150
O       -1.995096    -2.432560    -1.655681
C       -0.237832    -3.124988    -0.148357
H       -0.170131    -3.963020    -0.834416
H       -0.404407    -3.487967     0.866211
N        1.009514    -2.389056    -0.170455
H        1.661602    -2.456474    -0.938697
C        1.387876    -1.604649     0.852581
O        0.703229    -1.421559     1.862722
C        2.764854    -0.962769     0.688595
N        3.250664    -1.128392    -0.680094
H        3.425151    -1.533014     1.346243
H        4.258786    -1.058039    -0.703592
H        2.891689    -0.373939    -1.256973
C        2.723081     0.490339     1.198407
H        3.747613     0.868590     1.227281
H        2.332465     0.480423     2.215371
C        1.878119     1.367967     0.321224
C        2.434554     2.011474    -0.791137
H        3.499839     1.927738    -0.975541
C        1.646679     2.783540    -1.644514
H        2.096583     3.274554    -2.497259
C        0.286809     2.933488    -1.387080
H       -0.327108     3.539246    -2.039009
C       -0.273750     2.315946    -0.268570
H       -1.323831     2.462108    -0.049556
C        0.511168     1.533086     0.574573
H        0.071929     1.064082     1.445285
