37
aligned by OTMol
O       -0.848654     2.609863    -1.875500
C       -2.623811    -0.980282     1.051353
O       -2.320891     3.677167    -0.543939
H       -2.515895     0.844821    -0.072338
C       -2.101325    -2.260161     1.215436
H       -3.452717    -0.648389     1.660952
H       -2.523856    -2.930178     1.952475
N        2.191939    -2.545426     0.674519
H       -0.661590    -3.695915     0.522691
C       -2.085837    -0.137161     0.078533
O        1.747660     2.699178     2.245305
C       -1.040793    -2.685647     0.415862
H        0.654852    -3.365300    -1.525060
H       -0.610255     0.097738    -1.467893
N        2.769052     0.007496     0.528600
H        0.704793    -1.791413    -2.331301
C       -0.477638    -1.839711    -0.547631
O        1.980117     0.261910    -1.587179
C        0.702650    -2.286279    -1.360735
N        0.946731     2.353896     0.148210
H        2.846980    -2.354284    -1.283692
H        2.425353    -3.526555     0.605853
H        1.306762    -2.489662     1.168687
C        2.037189    -1.968781    -0.659755
H        3.834795     1.502258     1.497953
H        2.945597    -0.684102     1.243084
C        2.249895    -0.456105    -0.620575
C        3.094459     1.407158     0.710288
H        3.498206     1.790313    -0.227279
C        1.874970     2.220283     1.123096
H       -0.136243     4.019159     0.809260
C       -1.146645     3.060095    -0.794078
H       -2.803295     3.675572    -1.384688
C       -0.297338     3.004803     0.442620
H       -0.856356     2.482167     1.224144
C       -1.017070    -0.557950    -0.709204
H        1.073210     1.878421    -0.739076
