37
aligned by OTMol
O       -0.377664     2.621727    -2.074964
C       -2.753055    -0.383194     1.076981
O       -1.645745     4.021974    -0.845755
H       -3.513275     0.130605     1.648756
C       -2.460198    -1.718366     1.340712
H       -2.328755     1.308188    -0.173829
H       -2.993758    -2.249383     2.117897
N        1.342277     2.209855    -0.011837
H       -1.289160    -3.427878     0.774705
C       -1.487654    -2.378019     0.589646
O        2.186627     2.565407     2.066425
C       -0.784699    -1.715123    -0.424006
H        0.856885    -2.534740     1.360846
H        0.068761    -3.480879    -1.271963
N        1.720064    -2.778502     0.885081
H        0.391860    -2.002885    -2.188903
C        0.302177    -2.417124    -1.185280
O        2.001673    -0.151000    -1.576262
C        1.670102    -2.283677    -0.489475
N        2.730424    -0.381070     0.563752
H        4.036730     0.974873     1.438250
H        1.780363    -3.787532     0.890871
H        2.402250    -2.847896    -1.071961
C        2.141213    -0.831598    -0.556476
H        3.758534     1.188775    -0.308045
H        2.783217    -1.038217     1.328822
C        3.292697     0.951067     0.648689
C        2.231435     1.990401     0.983715
H        1.386385     1.655655    -0.860522
C        0.228981     3.085364     0.216462
H        0.562390     4.080973     0.511246
C       -0.595454     3.194997    -1.033374
H       -2.119452     4.041641    -1.691208
C       -2.075370     0.280592     0.053859
H       -0.413600     2.725921     1.025361
C       -1.093925    -0.374995    -0.685621
H       -0.578279     0.143062    -1.483593
