37
aligned by OTMol
O       -3.921130     1.555625     0.698404
C       -2.957085     0.678323     1.049344
O       -2.347006     0.741487     2.090880
H       -3.994659     2.176111     1.439462
C       -2.751733    -0.349156    -0.025793
H       -2.492615     0.167581    -0.954377
H       -3.696389    -0.860328    -0.214535
N       -1.730567    -1.273578     0.375116
H       -1.165281    -1.081014     1.195311
C       -1.404560    -2.300815    -0.442432
O       -1.993385    -2.540350    -1.491627
C       -0.226864    -3.132698     0.047201
H       -0.159049    -4.011071    -0.586377
H       -0.387575    -3.433214     1.082919
N        1.017591    -2.395173    -0.025878
H        1.666519    -2.507406    -0.791553
C        1.397527    -1.548058     0.945255
O        0.716677    -1.305618     1.945413
C        2.771337    -0.912674     0.735734
N        3.251699    -1.160410    -0.622439
H        4.259434    -1.088121    -0.654907
H        3.436684    -1.439117     1.424097
H        2.887333    -0.444095    -1.242908
C        2.726353     0.568865     1.155485
H        3.749571     0.951746     1.156296
H        2.340287     0.620110     2.172945
C        1.874214     1.387972     0.229977
C        2.423289     1.963832    -0.922399
H        3.488054     1.872634    -1.106265
C        1.628739     2.679238    -1.817927
H        2.073008     3.118478    -2.701315
C        0.269468     2.839983    -1.563867
H       -0.349608     3.402385    -2.248921
C       -0.283801     2.290402    -0.406930
H       -1.333444     2.446088    -0.192426
C        0.507787     1.563583     0.479060
H        0.074179     1.147453     1.378979
