37
aligned by OTMol
O       -0.965476     2.885759    -1.330487
C       -2.022345    -2.460446     0.936962
O       -2.363548     3.687736     0.244919
H       -2.520948     0.814127     0.230060
C       -2.558044    -1.178588     1.025696
H       -2.399801    -3.253069     1.569383
H       -3.352165    -0.967891     1.728423
N        0.943014     2.309099     0.515985
H       -0.619034    -3.735842    -0.072101
C       -2.079379    -0.173284     0.184928
O        1.860615     2.298607     2.593582
C       -1.007430    -2.727475     0.018414
H        0.577603    -3.039624    -2.101621
H       -0.694999     0.344415    -1.376941
N        2.792679    -0.043003     0.383699
H        0.575799    -1.349825    -2.625277
C        0.630679    -2.004515    -1.756216
O        1.883774     0.561541    -1.609310
C        2.001737    -1.794619    -1.085905
N        2.234239    -2.590416     0.118006
H        1.378394    -2.632560     0.662621
H        2.466997    -3.541805    -0.131983
H        3.012122    -0.844931     0.957038
C        2.210732    -0.308596    -0.797763
H        3.906286     1.276576     1.536242
H        2.776157    -2.055906    -1.810939
C        1.925675     2.022006     1.400201
C        3.122714     1.308667     0.786213
H        3.471075     1.853046    -0.091936
C       -0.284698     2.882732     0.986870
H       -0.106765     3.820814     1.513783
C       -1.203153     3.138860    -0.172717
H       -2.892971     3.824543    -0.555438
C       -1.055587    -0.437614    -0.721624
H       -0.796434     2.225769     1.696062
C       -0.503106    -1.720665    -0.814089
H        1.020591     1.995375    -0.445737
