37
aligned by OTMol
O       -2.296600     0.715775     2.163322
C       -2.923985     0.711725     1.130193
O       -3.871661     1.625828     0.832659
H       -3.918648     2.215583     1.600485
C       -2.760281    -0.273354     0.009202
H       -2.502969     0.276386    -0.900746
H       -3.719899    -0.753466    -0.185537
N       -1.755887    -1.238013     0.353716
H       -1.173529    -1.094181     1.171959
C       -1.467609    -2.236736    -0.511923
O       -2.078163    -2.417121    -1.560535
C       -0.303133    -3.116472    -0.077417
H       -0.266484    -3.968271    -0.748724
H       -0.455164    -3.457166     0.947113
N        0.957645    -2.406166    -0.139543
H        1.591793    -2.500848    -0.919834
C        1.372994    -1.610641     0.860297
O        0.713716    -1.395192     1.880877
C        2.758486    -0.999576     0.655415
N        3.211723    -1.200239    -0.719745
H        3.788192     0.821442     1.138605
H        4.220302    -1.150508    -0.765645
H        2.855411    -0.449589    -1.303198
C        2.756061     0.463282     1.138336
H        2.387054     0.480044     2.163250
H        3.421324    -1.570614     1.309810
C        1.909990     1.341210     0.262524
C        2.455136     1.952718    -0.873233
H        3.514410     1.844290    -1.078247
C        1.664566     2.724423    -1.724441
H        2.105759     3.190440    -2.595565
C        0.313681     2.906282    -1.441522
H       -0.301978     3.511999    -2.091846
C       -0.234947     2.320926    -0.300026
H       -1.277064     2.492095    -0.061918
C        0.552238     1.538301     0.541218
H        0.122518     1.094406     1.429662
