37
aligned by OTMol
O       -3.934438     1.551373     0.617428
C       -2.976734     0.674373     0.986041
O       -2.387242     0.736632     2.039418
H       -4.022991     2.170810     1.357720
C       -2.749501    -0.351504    -0.086219
H       -2.472656     0.166679    -1.008863
H       -3.689854    -0.863178    -0.294118
N       -1.735628    -1.275646     0.333410
H       -1.186687    -1.083728     1.164783
C       -1.392811    -2.301530    -0.478945
O       -1.960758    -2.540133    -1.539796
C       -0.224255    -3.133126     0.032582
H       -0.143309    -4.010597    -0.600703
H       -0.404989    -3.435154     1.064553
N        1.020786    -2.394511    -0.015114
H        1.684690    -2.505203    -0.768068
C        1.380914    -1.548392     0.964398
O        0.680390    -1.307831     1.951336
C        2.758044    -0.911632     0.782687
N        3.265140    -1.157170    -0.566133
H        3.410203    -1.438463     1.483266
H        4.273259    -1.084033    -0.578744
H        2.912417    -0.440317    -1.192679
C        2.703619     0.569309     1.203432
H        3.726309     0.953004     1.224807
H        2.297640     0.618886     2.213195
C        1.869111     1.388971     0.262479
C        2.440195     1.966808    -0.878151
H        3.508434     1.876705    -1.041229
C        1.662763     2.682775    -1.788138
H        2.123901     3.123550    -2.662066
C        0.298640     2.842096    -1.560561
H       -0.307351     3.404918    -2.256876
C       -0.276747     2.290529    -0.415418
H       -1.330522     2.445090    -0.221327
C        0.497920     1.563159     0.484959
H        0.047098     1.145481     1.375655
