37
aligned by OTMol
O       -0.089561     4.503790    -0.547412
C       -2.843054     0.582789     0.624157
O        0.845562     2.866080    -1.781562
H       -3.481055     1.272725     1.158752
C       -3.039243    -0.790190     0.744340
H       -1.703665     2.131043    -0.329799
H       -3.832955    -1.173730     1.371715
N        0.598146    -3.150583     0.680826
H       -0.229973     0.558671    -1.551703
C       -1.832527     1.062903    -0.209493
O        2.551122     1.609092     2.604884
C       -1.006183     0.179555    -0.899933
H        0.330879    -4.118086     0.561169
H       -0.206774    -2.671499     1.072532
N        2.359953    -1.213629     0.807339
H        2.075279    -1.911368     1.479710
C        0.932224    -2.555587    -0.611893
O        2.099588    -0.575725    -1.358061
C        1.847169    -1.345704    -0.427433
N        1.985597     1.731195     0.408572
H        1.529630    -3.282521    -1.167182
H        3.871472    -0.452380     2.009660
H        3.962831    -0.013542     0.285779
C        3.297060    -0.159486     1.136835
H        1.986959     1.266718    -0.493431
H        0.103764    -1.722127    -2.406275
C       -0.274872    -2.163883    -1.485197
C        2.584369     1.144254     1.470106
H        0.343457     2.718953     1.276281
C        1.189224     2.907532     0.608791
H        1.771100     3.705351     1.071610
C        0.656923     3.390773    -0.709137
H       -0.388655     4.751352    -1.435574
C       -2.220632    -1.673406     0.040855
H       -2.400957    -2.740472     0.109427
C       -1.188332    -1.203394    -0.780432
H       -0.818872    -3.076464    -1.739823
