37
aligned by OTMol
O       -2.899459     3.051701    -1.036037
C       -2.387138    -1.203279     1.405524
O       -1.321467     1.985733    -2.241576
H       -1.940807    -2.905296     2.641660
C       -1.658663    -2.332879     1.767925
H       -2.616080     0.366704    -0.039491
H       -3.236911    -0.890833     1.996381
N        0.561741     2.400076    -0.326850
H       -0.664843    -0.335024    -1.395007
C       -2.027503    -0.490729     0.261154
O        1.369394     3.259756     1.614068
C       -0.571986    -2.737229     0.992863
H        1.142047    -3.510362    -0.896230
H       -0.030524    -3.638298     1.258838
N        2.752528     0.476291     0.359185
H        0.907822    -2.131788    -1.979887
C       -0.187647    -2.016318    -0.144519
O        1.858842     0.196233    -1.711216
C        1.020068    -2.425442    -0.936784
N        2.602341    -2.058641     1.009820
H        1.737773    -2.044644     1.541963
H        2.989136    -2.987402     1.107827
H        3.148430    -2.149579    -0.988610
C        2.309323    -1.779491    -0.394804
H        3.063865    -0.030027     1.175686
H        3.156014     2.170661    -0.757846
C        2.275274    -0.273051    -0.648668
C        2.852951     1.917727     0.258533
H        3.595331     2.274112     0.965229
C        1.533080     2.599347     0.593299
H       -0.752893     3.976311     0.085634
C       -1.650259     2.584492    -1.244397
H       -3.404503     2.815102    -1.828834
C       -0.760242     2.897943    -0.076742
H       -1.199307     2.456138     0.822401
C       -0.933050    -0.886995    -0.503700
H        0.732319     1.787981    -1.117794
