37
aligned by OTMol
O       -0.905939     4.163905    -1.361749
C       -2.856535    -1.292495     0.833324
O        0.381906     2.549272    -2.264018
H       -3.701461     0.684372     0.858818
C       -2.918880     0.049275     0.467577
H       -1.829594    -3.161141     0.573165
H       -3.592585    -1.707136     1.509330
N        1.161428    -2.869940     1.250139
H        0.262131    -2.496062     1.537075
C       -1.851948    -2.108512     0.313700
O        2.079634     2.442681     2.300653
C       -0.888914    -1.597972    -0.565494
H        1.088783    -3.876667     1.305226
H       -0.124462    -3.501832    -1.162365
N        2.515321    -0.634597     1.045262
H        0.555665    -2.132291    -2.051985
C        0.223411    -2.470225    -1.071014
O        2.244252    -0.451529    -1.203443
C        1.438980    -2.458344    -0.124745
N        1.608716     2.063033     0.111448
H        2.189780    -3.140715    -0.530136
H       -2.049021     1.597619    -0.737124
H       -0.246040     0.153446    -1.631997
C        2.097597    -1.079768    -0.151560
H        3.794592     0.607071     2.108979
H        2.335887    -1.244941     1.829637
C        2.255650     1.800815     1.270154
C        3.218175     0.623609     1.189724
H        3.884737     0.744615     0.335381
C        0.594783     3.077529     0.083158
H        0.991453     4.042498     0.400623
C        0.045183     3.207526    -1.307827
H       -1.203025     4.187820    -2.284107
C       -1.978514     0.563127    -0.425907
H       -0.231267     2.847872     0.762369
C       -0.966953    -0.249208    -0.932577
H        1.742076     1.456289    -0.690691
