37
aligned by OTMol
O       -2.333584     0.683364     2.127818
C       -2.947731     0.666212     1.086900
O       -3.905332     1.564760     0.774147
H       -3.970961     2.156371     1.539174
C       -2.754950    -0.320113    -0.028358
H       -2.494531     0.230344    -0.936987
H       -3.704635    -0.815439    -0.233409
N       -1.740469    -1.268185     0.332269
H       -1.170745    -1.112694     1.157246
C       -1.426156    -2.265379    -0.526041
O       -2.020604    -2.458641    -1.581590
C       -0.254049    -3.125792    -0.073726
H       -0.196001    -3.979240    -0.741419
H       -0.413827    -3.465233     0.950041
N        0.996491    -2.396602    -0.122564
H        1.641811    -2.484307    -0.894466
C        1.387055    -1.591413     0.879526
O        0.711742    -1.382510     1.890941
C        2.765595    -0.960044     0.689873
N        3.239164    -1.158518    -0.678737
H        3.428699    -1.518674     1.354627
H        4.247371    -1.093602    -0.712124
H        2.878904    -0.415389    -1.269350
C        2.734874     0.504261     1.167408
H        3.761366     0.878084     1.179362
H        2.352733     0.518933     2.187531
C        1.886713     1.366194     0.277837
C        2.436826     1.982015    -0.853185
H        3.500129     1.889014    -1.044460
C        1.645456     2.738666    -1.717070
H        2.090500     3.208343    -2.584262
C        0.288501     2.900921    -1.451833
H       -0.328011     3.494958    -2.112047
C       -0.265563     2.311215    -0.315211
H       -1.313081     2.467324    -0.090856
C        0.522714     1.543559     0.538709
H        0.088587     1.096236     1.423282
