37
aligned by OTMol
O       -2.280185     3.685633    -0.660320
C       -2.688959    -1.007089     0.802492
O       -0.707383     2.650823    -1.899327
H       -2.501544     0.843078    -0.268530
C       -2.176425    -2.289580     0.977222
H       -2.651751    -2.976686     1.664703
H       -3.562954    -0.690259     1.354397
N        2.146459    -2.556273     0.758969
H       -0.683532    -3.707217     0.364277
C       -1.056705    -2.695351     0.251506
O        1.567106     2.650870     2.408405
C       -0.954096    -0.542759    -0.820528
H        0.784050    -3.328521    -1.569217
H       -0.492744     0.130487    -1.531110
N        2.724889     0.000135     0.714706
H        0.890270    -1.736759    -2.333842
C       -0.424469    -1.827052    -0.647050
O        2.098651     0.301103    -1.448835
C        0.815756    -2.253417    -1.377595
N        0.929393     2.351855     0.249139
H        1.226029    -2.512977     1.185333
H        2.387547    -3.535258     0.686338
H        2.948188    -2.320005    -1.138823
C        2.091989    -1.949875    -0.569966
H        3.503841     1.800630     0.056752
H        2.848680    -0.707160     1.424898
C        2.296278    -0.438159    -0.480804
C        3.031052     1.395813     0.951986
H        3.708914     1.474187     1.795738
C        1.781074     2.197623     1.288723
H       -0.206091     4.000181     0.862832
C       -0.335556     2.994127     0.462345
H       -2.697119     3.702315    -1.535227
C       -1.088336     3.076086    -0.833960
H       -0.950830     2.453160     1.187066
C       -2.081110    -0.141430    -0.107345
H        1.124623     1.896722    -0.636349
