37
aligned by OTMol
O       -0.678814     0.452252    -4.376122
C       -2.146567     2.147733     0.017008
O        3.409446     1.369557    -1.595092
H        0.594580     0.694124     2.865611
C       -1.738744     1.019658    -0.695576
H        0.908262    -0.249025     4.152176
H       -1.771387     1.032405    -1.777599
N        1.123860    -0.115715     3.173627
H       -1.004739    -0.998435    -0.583820
C       -0.799877    -1.375334     2.105924
O       -0.375687    -1.335992    -3.038223
C       -1.734237     0.965954     2.078912
H       -0.975888    -2.274856     1.517046
H        0.996634    -2.175166     2.967043
N        2.551284    -0.546874     1.017630
H       -1.325707    -1.479242     3.057911
C        1.495154    -1.373811     1.093910
O        1.180669    -2.164680     0.200448
C        0.709354    -1.285633     2.401470
N        1.800913    -0.211451    -1.862575
H        1.800925     0.791347    -3.700323
H        1.380493    -1.061432    -1.501839
H        4.399884    -0.131949     0.168936
C        3.441644    -0.547927    -0.124828
H       -1.772087     0.934363     3.162157
H        0.755088     1.501121    -2.493889
C        2.898397     0.304776    -1.263475
C       -1.311410    -0.123893    -0.025104
H        3.570417    -1.577834    -0.458832
C        1.128176     0.547135    -2.877482
H       -1.404988    -0.119398    -4.668466
C       -2.148307     2.116851     1.408787
H       -2.482032     2.978366     1.971904
C       -1.300674    -0.163910     1.374284
H       -2.476340     3.033271    -0.508274
C       -0.034263    -0.238351    -3.411849
H        2.701566     0.050994     1.817587
