37
aligned by OTMol
O       -3.949109     1.543795     0.521120
C       -2.983346     0.700439     0.943320
O       -2.395007     0.833457     1.990768
H       -4.043893     2.207065     1.221595
C       -2.745875    -0.387739    -0.063297
H       -2.473470     0.074850    -1.016311
H       -3.681242    -0.920196    -0.239004
N       -1.723525    -1.274449     0.412740
H       -1.176848    -1.026173     1.230574
C       -1.370609    -2.345427    -0.334481
O       -1.935733    -2.654702    -1.378457
C       -0.194505    -3.132613     0.227528
H       -0.372904    -3.371784     1.276251
H       -0.104943    -4.046848    -0.350149
N        1.043521    -2.386620     0.134040
H        1.708828    -2.537485    -0.610654
C        1.395133    -1.478035     1.059187
O        0.691862    -1.183399     2.029366
C        2.766274    -0.840755     0.838246
N        3.276359    -1.164624    -0.492797
H        2.917194    -0.491362    -1.162551
H        4.283747    -1.082868    -0.509994
H        3.423026    -1.316944     1.570088
C        2.697635     0.662838     1.166377
H        3.716640     1.056786     1.163846
H        2.290689     0.771071     2.171155
C        1.855897     1.414655     0.176483
C        2.422075     1.926052    -0.997818
H        3.491202     1.836131    -1.155078
C        1.638375     2.576839    -1.950381
H        2.095771     2.966936    -2.849989
C        0.272690     2.737038    -1.733015
H       -0.338239     3.249850    -2.462837
C       -0.298043     2.252098    -0.555839
H       -1.353330     2.408411    -0.371623
C        0.483006     1.589310     0.387841
H        0.035697     1.223401     1.302751
