37
aligned by OTMol
O       -2.291266     0.632058     2.195809
C       -2.925785     0.641766     1.167085
O       -3.888275     1.548631     0.896144
H       -3.938138     2.120675     1.677076
C       -2.756153    -0.316062     0.023585
H       -2.512995     0.257104    -0.875739
H       -3.710279    -0.805360    -0.175227
N       -1.735911    -1.273691     0.339998
H       -1.149888    -1.139590     1.157277
C       -1.439733    -2.248992    -0.549355
O       -2.055055    -2.414980    -1.597557
C       -0.259987    -3.121427    -0.142179
H       -0.400007    -3.486638     0.875595
H       -0.216103    -3.957690    -0.832322
N        0.990222    -2.392104    -0.197117
H        1.620132    -2.460634    -0.983552
C        1.401381    -1.612887     0.817193
O        0.746339    -1.429258     1.846683
C        2.776679    -0.977868     0.616511
N        3.223003    -1.141863    -0.765753
H        4.230436    -1.076823    -0.817327
H        3.452059    -1.553657     1.253694
H        2.852088    -0.383728    -1.330115
C        2.757107     0.473863     1.131552
H        3.784082     0.846547     1.132772
H        2.395120     0.462898     2.159045
C        1.892648     1.358692     0.281006
C        2.421148     2.002645    -0.844641
H        3.480372     1.913789    -1.059114
C        1.613848     2.781536    -1.673304
H        2.042313     3.272766    -2.536896
C        0.262566     2.937950    -1.377368
H       -0.366099     3.548986    -2.010033
C       -0.269742     2.319965    -0.245383
H       -1.312459     2.471058     0.003442
C        0.534256     1.530328     0.573100
H        0.117074     1.060995     1.454417
