37
aligned by OTMol
O       -3.947083    -0.261431    -0.228411
C       -3.322323     0.878868     0.088768
O       -3.541144     1.918737    -0.487606
H       -1.891146     1.735248     1.413838
C       -2.330968     0.761263     1.240876
H       -2.869765     0.439153     2.133788
H       -3.634207    -0.969659     0.382723
N       -1.265679    -0.191974     0.979025
H       -0.345196     0.144370     0.733917
C       -1.485886    -1.508087     1.121625
O       -2.608313    -1.974098     1.354943
C       -0.284277    -2.425501     1.030263
H        0.103956    -2.559018     2.041148
H       -0.646637    -3.385420     0.668417
N        0.800144    -1.942270     0.217899
H        0.761852    -1.978937    -0.790931
C        1.985184    -1.548088     0.750821
O        2.195091    -1.426643     1.950553
C        3.059354    -1.225395    -0.280329
N        2.703062    -1.745004    -1.602629
H        3.320304    -1.344756    -2.299580
H        2.860655    -2.746086    -1.632456
H        3.982708    -1.657173     0.118442
C        3.250303     0.297635    -0.323343
H        3.935859     0.530128    -1.143863
H        3.746628     0.588677     0.601086
C        1.981225     1.093922    -0.462081
C        1.561660     1.905909     0.597730
H        2.148045     1.930575     1.507766
C        0.415973     2.694527     0.485914
H        0.124815     3.335420     1.307250
C       -0.350405     2.657125    -0.678526
H       -1.254244     3.243719    -0.762826
C        0.044143     1.830024    -1.729868
H       -0.551028     1.789528    -2.631524
C        1.205239     1.065158    -1.628272
H        1.507099     0.438554    -2.455548
