37
aligned by OTMol
O       -3.619522     1.901879    -0.189345
C       -3.349477     0.792439     0.206180
O       -3.720756     0.351749     1.412153
H       -3.433276    -0.587363     1.508341
C       -2.578111    -0.220011    -0.636329
H       -2.310172     0.251089    -1.575045
H       -3.231139    -1.073413    -0.830939
N       -1.369639    -0.711628    -0.000264
H       -0.483342    -0.278125    -0.219870
C       -1.430484    -1.618318     0.988158
O       -2.501159    -2.039264     1.443162
C       -0.120220    -2.127184     1.548698
H       -0.230559    -3.205842     1.660674
H        0.011611    -1.704494     2.544596
N        1.041328    -1.774512     0.780494
H        1.153510    -2.045806    -0.186817
C        2.089790    -1.109705     1.328607
O        2.134120    -0.720500     2.488938
C        3.223599    -0.818238     0.353700
N        3.065702    -1.572253    -0.891752
H        3.625902    -1.149513    -1.622179
H        3.426330    -2.512139    -0.773593
H        4.147804    -1.056174     0.886994
C        3.225161     0.695411     0.086085
H        3.995290     0.909774    -0.659512
H        1.324900     1.848983     1.619914
C        1.032046     1.822338     0.577554
C        1.899357     1.246364    -0.359008
H        3.523015     1.183629     1.013270
C        1.503496     1.207192    -1.700679
H        2.162848     0.771204    -2.440827
C        0.282481     1.748373    -2.100246
H        0.000931     1.723547    -3.145040
C       -0.567204     2.334450    -1.161383
H       -1.516740     2.755132    -1.460388
C       -0.191068     2.362360     0.181340
H       -0.851353     2.807569     0.913359
