9
aligned by OTMol
O       -1.394885    -0.793413     0.297148
H       -0.483897    -1.139812     0.223481
H       -1.932203    -1.368619    -0.260086
O        1.404358    -0.795427     0.241943
H        1.242581     0.160343     0.116384
H        2.125539    -1.013068    -0.360302
O        0.003781     1.626576     0.133822
H       -0.749781     1.004639     0.108538
H       -0.215463     2.318761    -0.500958
