120
aligned by OTMol
O       -1.389330    -4.905131    -5.780081
H       -2.236095    -4.393940    -5.679904
H       -1.516488    -5.586955    -5.136578
O        4.272369     3.905692    -1.893568
H        5.035103     4.410359    -1.596753
H        4.604062     3.020709    -1.796172
O        2.062007     1.434366     6.752863
H        2.504489     0.972534     7.467502
H        2.629158     2.169709     6.586739
O        7.003180    -2.057781     1.333555
H        7.367897    -2.889293     1.153698
H        6.313351    -1.832034     0.684055
O        4.241471    -2.693703     2.430383
H        3.868809    -2.365224     3.299037
H        4.331584    -1.859997     1.889522
O        7.005629    -0.566280    -1.556975
H        6.514231    -0.954030    -2.330301
H        7.937898    -0.802574    -1.884628
O        2.583055    -1.971287    -3.718358
H        2.047439    -2.460398    -4.376593
H        2.633680    -2.620063    -3.009357
O       -0.879549     2.944724    -1.968672
H       -0.464732     2.548175    -2.799796
H       -0.163897     2.798052    -1.330840
O       -5.580925     5.078388     1.097961
H       -6.010737     4.274111     0.755304
H       -4.849635     5.271009     0.515852
O        1.264051    -4.681199    -2.985588
H        1.720586    -5.493657    -2.780306
H        1.383279    -4.553638    -3.944975
O       -2.740029    -4.312497     3.811588
H       -2.837863    -3.489050     3.361174
H       -3.613482    -4.654170     3.846434
O        0.875358    -3.287914     1.963510
H        0.601898    -3.556749     2.835985
H        1.818553    -3.055799     2.058041
O        2.875135    -6.799092    -0.675637
H        3.361870    -5.959499    -0.404404
H        2.078532    -6.768880    -0.122134
O        3.002131     0.795923    -3.729167
H        2.406748     0.827862    -4.432029
H        2.931052    -0.121907    -3.437930
O       -1.521999     5.848784     2.785138
H       -1.581504     4.876615     2.659331
H       -1.931384     6.116007     1.952726
O        5.350196     2.661467     6.100278
H        4.858074     2.135314     5.431257
H        4.804193     3.414148     6.314167
O       -4.093853     5.301781    -1.586478
H       -4.849530     4.972926    -2.128002
H       -3.584243     4.495710    -1.426829
O       -1.858298    -7.856216    -1.212938
H       -1.966438    -7.236122    -0.488100
H       -1.202050    -7.420666    -1.747392
O        0.525452    -1.201517     4.520617
H        0.687950    -0.253717     4.526830
H        0.175867    -1.361711     5.408948
O        4.149094    -4.643528     0.280754
H        5.094734    -4.756747     0.372839
H        3.975989    -3.860058     0.815857
O        0.225736     2.153302     2.514644
H       -0.607938     2.626558     2.463478
H        0.012136     1.680915     3.380746
O       -3.745152     0.214194     4.483634
H       -4.589538     0.592289     4.234199
H       -3.347230     1.014394     4.946455
O       -3.031215     3.166133    -0.173906
H       -2.268782     3.196632    -0.775528
H       -3.365675     2.280927    -0.328455
O       -4.927355    -2.035599     6.079363
H       -4.420983    -1.651488     5.392539
H       -4.206443    -2.639323     6.272764
O        3.700173    -0.969538     4.907079
H        3.991012    -0.153513     4.561045
H        2.754588    -0.907298     4.800781
O        0.811382    -6.064854     0.988063
H        0.639014    -5.125389     1.038982
H        0.973901    -6.271332     1.942575
O       -1.380050    -2.799122     0.030194
H       -0.669041    -2.865761     0.701000
H       -1.468899    -1.836564    -0.177471
O       -3.282291    -1.863610    -4.935620
H       -2.767771    -2.427379    -4.354035
H       -3.114025    -2.273562    -5.791312
O        0.573138     5.343581    -0.078967
H        1.092057     5.518012    -0.884809
H       -0.203477     5.744852    -0.376506
O        4.632216     1.950243     1.327811
H        4.098245     1.585377     0.610556
H        5.029793     2.707696     0.873850
O        4.573545    -0.942199     0.133266
H        3.715887    -0.499690    -0.061758
H        5.284041    -0.478573    -0.426816
O       -1.995589     0.589839    -4.262342
H       -2.507849    -0.202047    -4.489921
H       -1.330859     0.301075    -3.605930
O        3.077207     6.684490     0.975259
H        3.983745     6.410959     0.981414
H        2.836228     6.309123     1.840757
O        3.687777     1.573492     3.998674
H        2.838340     2.052883     4.083797
H        3.999272     1.674996     3.108228
O        5.012533     2.220155    -4.849015
H        4.452475     1.464941    -4.552293
H        4.729070     3.002093    -4.345359
O       -5.870956    -1.832122     1.429681
H       -5.445407    -2.526916     0.842392
H       -5.708238    -2.227174     2.280107
O        1.741489     0.540810    -6.443512
H        1.685880     0.822137    -7.400474
H        0.953917    -0.044827    -6.372158
O       -1.982836    -1.455131     3.053136
H       -1.103351    -1.290092     3.461569
H       -2.708824    -0.911030     3.365271
O       -3.979474     0.574923    -0.741408
H       -3.631987    -0.100868    -0.184817
H       -4.900431     0.245342    -0.933724
O        0.623301    -0.041604     0.304318
H       -0.153313     0.359666     0.006779
H        1.142220     0.132826    -0.501525
