15
aligned by OTMol
O       -0.370603    -1.958700    -0.233260
H       -0.235307    -1.899210     0.732207
H        0.483968    -1.625517    -0.557690
O        0.160992    -0.520720     2.204066
H        0.897127    -0.231242     1.636302
H       -0.571823     0.040124     1.904328
O        1.840311    -0.041047    -0.199181
H        2.783242     0.156879    -0.252498
H        1.387687     0.731047    -0.609601
O        0.168133     1.888069    -1.241231
H       -0.638425     1.502921    -0.834675
H        0.005410     1.835180    -2.191506
O       -1.781683     0.361768     0.006119
H       -2.731167     0.283026    -0.146212
H       -1.397814    -0.522577    -0.217168
