500
aligned by OTMol
Ne      -0.064685    -0.704158     0.341467
Ne      -0.346364     0.161085     0.903382
Ne       0.229058    -1.591043     0.808551
Ne      -1.090744    -0.371075     0.340672
Ne      -1.093110     0.700096     0.338667
Ne      -0.064967     1.027155     0.340539
Ne       0.565255     0.159408     0.340691
Ne      -0.627771    -0.704251    -0.569844
Ne      -1.267776     0.166508    -0.573797
Ne      -0.636107     1.031845    -0.574790
Ne       0.390706     0.696141    -0.569871
Ne       0.391070    -0.373317    -0.569493
Ne      -0.351521     0.165544    -1.136884
Ne      -0.338195     0.157956     1.945834
Ne       0.232218     1.908300     0.809235
Ne       1.501274     0.156121     0.807789
Ne       0.527508    -2.493399     1.283582
Ne      -1.844064    -0.920792     0.809729
Ne      -1.846897     1.249673     0.809600
Ne       1.151390     1.239280    -1.031545
Ne       1.149730    -0.922707    -1.031684
Ne      -0.906132    -1.594125    -1.032293
Ne      -2.202430     0.162267    -1.042946
Ne      -0.920461     1.922193    -1.042156
Ne      -0.347919     0.165293    -2.180763
Ne      -0.051331     1.044267     1.394890
Ne       0.591140     0.157079     1.394052
Ne      -0.052722    -0.726587     1.394668
Ne      -1.098521    -0.387746     1.393902
Ne      -1.099594     0.708944     1.393055
Ne       0.879512     1.042987     0.818813
Ne       0.878625    -0.727700     0.818536
Ne      -0.811457    -1.271543     0.819117
Ne      -1.866683     0.163834     0.820361
Ne      -0.811382     1.593957     0.818612
Ne       0.702497     1.591488    -0.111859
Ne      -0.343979     1.933255    -0.115630
Ne       1.344925     0.704269    -0.112612
Ne       1.344283    -0.389669    -0.112218
Ne       0.701284    -1.272982    -0.111468
Ne      -0.340103    -1.612566    -0.112176
Ne      -1.385398    -1.273734    -0.111537
Ne      -2.044764    -0.384888    -0.114143
Ne      -2.049481     0.715031    -0.116611
Ne      -1.398654     1.603074    -0.117544
Ne       1.167030     0.158857    -1.043366
Ne       0.125833    -1.274334    -1.043486
Ne      -1.565608    -0.724709    -1.046475
Ne      -1.579613     1.056118    -1.055783
Ne       0.120724     1.594800    -1.046112
Ne       0.410356     0.707580    -1.622034
Ne       0.409715    -0.385068    -1.621757
Ne      -0.629501    -0.725012    -1.622422
Ne      -1.285634     0.166181    -1.631490
Ne      -0.639811     1.054447    -1.631908
Ne      -0.329551     0.154897     3.007382
Ne       0.535503     2.805916     1.286963
Ne       2.452668     0.153274     1.282739
Ne       0.829497    -3.410306     1.766206
Ne      -2.608857    -1.484611     1.288969
Ne      -2.608286     1.813450     1.298546
Ne       1.926184     1.792384    -1.501372
Ne       1.921213    -1.481677    -1.502150
Ne      -1.188806    -2.501557    -1.503275
Ne      -3.153302     0.146331    -1.524456
Ne      -1.200359     2.835496    -1.515614
Ne      -0.340553     0.162001    -3.244908
Ne      -0.039211     1.050373     2.457913
Ne       0.608117     0.154569     2.456474
Ne      -0.041794    -0.738725     2.456929
Ne      -1.095094    -0.397903     2.457131
Ne      -1.094838     0.711206     2.457448
Ne       0.250714     1.938803     1.881505
Ne       1.540187     0.153997     1.878288
Ne       0.245165    -1.626025     1.879147
Ne      -1.857091    -0.947660     1.880668
Ne      -1.858105     1.266056     1.884027
Ne       0.906302     1.054946     1.894625
Ne       0.904014    -0.744526     1.893554
Ne      -0.810197    -1.299839     1.895281
Ne      -1.873714     0.158587     1.897359
Ne      -0.807561     1.615553     1.897526
Ne       1.189782     1.937941     1.299070
Ne       1.830042    -0.739847     1.296569
Ne      -0.518880    -2.177667     1.297723
Ne      -2.638892    -0.390969     1.307828
Ne      -1.566419     2.160252     1.304196
Ne       1.831851     1.048859     1.297401
Ne       1.185068    -1.626721     1.296947
Ne      -1.568859    -1.839356     1.299267
Ne      -2.638551     0.714452     1.309633
Ne      -0.513295     2.493526     1.301375
Ne       1.672257     1.610970     0.363638
Ne       1.669035    -1.299934     0.362910
Ne      -1.101714    -2.201751     0.363937
Ne      -2.848512     0.160867     0.365636
Ne      -1.104089     2.521352     0.363327
Ne       1.012233     2.491606     0.359384
Ne      -0.040879     2.836463     0.357113
Ne       2.301607     0.706727     0.356364
Ne       2.300369    -0.398426     0.356483
Ne       1.006122    -2.178230     0.357476
Ne      -0.044856    -2.521755     0.356756
Ne      -2.146240    -1.843989     0.360142
Ne      -2.819925    -0.950796     0.357479
Ne      -2.824661     1.274204     0.360694
Ne      -2.162521     2.175781     0.359404
Ne       1.478165     2.151870    -0.575014
Ne      -0.622922     2.845158    -0.581663
Ne       2.125521     1.256087    -0.576510
Ne       2.122434    -0.946267    -0.576657
Ne       1.473196    -1.839172    -0.576108
Ne      -0.619686    -2.524988    -0.577150
Ne      -1.672457    -2.185111    -0.575803
Ne      -3.001116    -0.402389    -0.584180
Ne      -3.007355     0.714373    -0.587260
Ne      -1.691166     2.517949    -0.582741
Ne       0.433827     2.516704    -0.583754
Ne       2.143127     0.154973    -0.583180
Ne       0.432226    -2.200254    -0.582844
Ne      -2.347264    -1.304425    -0.585144
Ne      -2.371300     1.633185    -0.593225
Ne       1.946181     0.704391    -1.516631
Ne       0.892655    -1.841196    -1.517136
Ne      -1.854311    -1.631962    -1.520409
Ne      -2.531105     1.060094    -1.539187
Ne      -0.154119     2.503017    -1.521894
Ne       1.944226    -0.392640    -1.516931
Ne      -0.149208    -2.183458    -1.517539
Ne      -2.511596    -0.743887    -1.526719
Ne      -1.875522     1.963205    -1.536441
Ne       0.893698     2.154729    -1.517230
Ne       0.426111     0.709766    -2.682987
Ne       0.423502    -0.393057    -2.683057
Ne      -0.623397    -0.738524    -2.683711
Ne      -1.289848     0.159920    -2.700834
Ne      -0.633590     1.064724    -2.700361
Ne       1.184904     1.257198    -2.100121
Ne       1.181031    -0.943665    -2.100053
Ne      -0.909071    -1.630952    -2.101654
Ne      -2.231285     0.156448    -2.122917
Ne      -0.922696     1.960028    -2.120012
Ne       1.197014     0.157239    -2.116725
Ne       0.139632    -1.300630    -2.117260
Ne      -1.577785    -0.745842    -2.123177
Ne      -1.594447     1.071220    -2.140985
Ne       0.136745     1.618023    -2.121138
Ne      -0.029165     1.053938     3.532432
Ne       0.621742     0.152345     3.530302
Ne      -0.032295    -0.747686     3.530813
Ne      -1.090292    -0.405185     3.532950
Ne      -1.089141     0.712086     3.534370
Ne       0.264231     1.954395     2.959285
Ne       1.565026     0.152045     2.954915
Ne       0.257540    -1.646760     2.955837
Ne      -1.857463    -0.963967     2.960802
Ne      -1.855333     1.273004     2.965999
Ne       0.924733     1.060900     2.972692
Ne       0.921677    -0.755010     2.971192
Ne      -0.804504    -1.317055     2.973883
Ne      -1.870970     0.154358     2.979985
Ne      -0.800100     1.626105     2.977717
Ne       0.555677     2.845166     2.370550
Ne       2.499711     0.151541     2.364351
Ne       0.545442    -2.536575     2.365440
Ne      -2.619231    -1.517843     2.373295
Ne      -2.620342     1.831437     2.389455
Ne       1.218328     1.960332     2.389110
Ne       1.865028    -0.755295     2.385797
Ne      -0.514871    -2.215018     2.388226
Ne      -2.640519    -0.404361     2.401658
Ne      -1.567398     2.186924     2.398641
Ne       1.867832     1.060316     2.387070
Ne       1.212088    -1.653511     2.386181
Ne      -1.572605    -1.874510     2.390399
Ne      -2.639786     0.715589     2.404628
Ne      -0.506400     2.525562     2.394539
Ne       1.500470     2.844245     1.783659
Ne       2.791070    -0.748372     1.778652
Ne      -0.221850    -3.092914     1.780418
Ne      -3.417183    -0.960776     1.810263
Ne      -2.324238     2.738555     1.801666
Ne       2.152711     1.952833     1.786234
Ne       2.147089    -1.647009     1.783681
Ne      -1.278476    -2.759789     1.786458
Ne      -3.425665     0.157797     1.823524
Ne      -1.267095     3.074897     1.798026
Ne       2.793516     1.052168     1.779725
Ne       1.491084    -2.536664     1.779322
Ne      -2.332864    -2.414198     1.784579
Ne      -3.414268     1.277878     1.816190
Ne      -0.210041     3.404572     1.788437
Ne       2.462881     2.177475    -0.101753
Ne       2.456502    -1.870713    -0.103544
Ne      -1.389660    -3.130218    -0.102601
Ne      -3.829342     0.145691    -0.107171
Ne      -1.384032     3.451347    -0.097171
Ne       1.991205     2.521380     0.844288
Ne       2.636459    -1.315924     0.841107
Ne      -0.808802    -3.125457     0.842810
Ne      -3.642139    -0.412254     0.855796
Ne      -1.860514     3.105458     0.855219
Ne       2.640621     1.621300     0.842423
Ne       1.983688    -2.213939     0.841514
Ne      -1.866363    -2.785818     0.844812
Ne      -3.643176     0.719750     0.861175
Ne      -0.799041     3.440029     0.849587
Ne       1.322480     3.401804     0.837867
Ne       0.265609     3.749858     0.837707
Ne       3.266129     0.707901     0.832436
Ne       3.264565    -0.404653     0.832233
Ne       1.310954    -3.092424     0.833406
Ne       0.253780    -3.438520     0.833119
Ne      -2.910901    -2.423750     0.838217
Ne      -3.603051    -1.536424     0.835021
Ne      -3.604358     1.848757     0.857132
Ne      -2.930532     2.761877     0.853402
Ne       1.796981     3.067052    -0.104371
Ne      -0.314985     3.766054    -0.105049
Ne       3.097355     1.264396    -0.107898
Ne       3.093723    -0.959827    -0.108448
Ne       1.786904    -2.757928    -0.107633
Ne      -0.325536    -3.451170    -0.108196
Ne      -2.440642    -2.772716    -0.105598
Ne      -3.797159    -0.990745    -0.118331
Ne      -3.804841     1.281350    -0.108676
Ne      -2.459946     3.120605    -0.097373
Ne       0.746459     3.435039    -0.109669
Ne       3.115259     0.152274    -0.113159
Ne       0.736406    -3.123118    -0.112567
Ne      -3.120336    -1.890495    -0.116019
Ne      -3.157059     2.217761    -0.110186
Ne       2.261502     2.716782    -1.046143
Ne      -0.898189     3.773755    -1.048713
Ne       2.912163     1.815012    -1.047782
Ne       2.906054    -1.509505    -1.048915
Ne       2.252513    -2.408925    -1.048578
Ne      -0.903975    -3.446114    -1.049519
Ne      -1.962010    -3.106579    -1.048597
Ne      -3.969563    -0.432419    -1.066923
Ne      -3.979223     0.702360    -1.072153
Ne      -1.977498     3.453707    -1.051522
Ne       1.217783     3.090930    -1.055619
Ne       2.937272     0.708155    -1.057572
Ne       1.209313    -2.779823    -1.057815
Ne      -2.641623    -2.230898    -1.061730
Ne      -3.347312     1.644065    -1.077573
Ne       0.161731     3.442137    -1.057538
Ne       2.935229    -0.402644    -1.058027
Ne       0.154691    -3.126432    -1.058064
Ne      -3.304624    -1.336918    -1.069571
Ne      -2.676486     2.566620    -1.070754
Ne       2.732003     1.258977    -1.994455
Ne       1.669010    -2.411174    -1.995635
Ne      -2.144733    -2.552147    -1.999901
Ne      -3.498849     1.051074    -2.032322
Ne      -0.423047     3.426501    -2.002490
Ne       2.737008     0.153139    -2.000114
Ne       0.621398    -2.763770    -2.000923
Ne      -2.808170    -1.666747    -2.010258
Ne      -2.842368     1.980031    -2.032464
Ne       0.629084     3.076496    -1.999843
Ne       2.727182    -0.952803    -1.995413
Ne      -0.430314    -3.102274    -1.996268
Ne      -3.468230    -0.775168    -2.016685
Ne      -2.164507     2.893977    -2.020839
Ne       1.676704     2.719874    -1.993993
Ne       0.446531     0.707661    -3.754541
Ne       0.438664    -0.402285    -3.755139
Ne      -0.612601    -0.755363    -3.755618
Ne      -1.289672     0.142908    -3.788952
Ne      -0.616469     1.072323    -3.787792
Ne       1.212092     1.264290    -3.174610
Ne       1.203395    -0.958143    -3.174298
Ne      -0.904157    -1.657349    -3.176717
Ne      -2.247094     0.134481    -3.216594
Ne      -0.906367     1.986612    -3.212039
Ne       1.220247     0.152883    -3.191943
Ne       0.153596    -1.319486    -3.192674
Ne      -1.577172    -0.770279    -3.200488
Ne      -1.595122     1.073721    -3.235773
Ne       0.160738     1.629132    -3.197482
Ne       1.968687     1.815396    -2.581327
Ne       1.960546    -1.508665    -2.581746
Ne      -1.193755    -2.548886    -2.584185
Ne      -3.190552     0.133082    -2.624004
Ne      -1.198891     2.886069    -2.611898
Ne       1.985992     0.708628    -2.603751
Ne       0.915978    -1.873402    -2.604674
Ne      -1.866961    -1.668554    -2.610120
Ne      -2.558326     1.068349    -2.647673
Ne      -0.131094     2.536703    -2.609737
Ne       1.982844    -0.401872    -2.604199
Ne      -0.137656    -2.221361    -2.605100
Ne      -2.530553    -0.775002    -2.616781
Ne      -1.889509     1.992776    -2.644049
Ne       0.923341     2.182810    -2.605273
Ne      -0.321985     0.152333     4.087534
Ne       0.842881     3.720307     1.772833
Ne       3.418463     0.150848     1.765046
Ne       1.138826    -4.353908     2.262868
Ne      -3.386785    -2.064229     1.779298
Ne      -3.375788     2.400936     1.819727
Ne       2.713627     2.355950    -1.980035
Ne       2.704276    -2.049363    -1.981095
Ne      -1.477495    -3.425087    -1.983114
Ne      -4.128471     0.110981    -2.025172
Ne      -1.467054     3.786529    -1.995445
Ne      -0.329385     0.155204    -4.331821
Ne       4.411721     0.148766     2.261217
Ne       3.509201    -2.633200    -2.475029
Ne      -0.021823     1.057327     4.627743
Ne       0.632029     0.150557     4.625410
Ne      -0.025083    -0.754956     4.625824
Ne      -1.087276    -0.410150     4.629888
Ne      -1.085299     0.712405     4.632114
Ne       0.274743     1.967830     4.051681
Ne       1.586426     0.150378     4.046748
Ne       0.267912    -1.664495     4.047697
Ne      -1.860223    -0.976049     4.056068
Ne      -1.856912     1.279652     4.061883
Ne       0.940318     1.066044     4.062911
Ne       0.936922    -0.763928     4.061249
Ne      -0.800970    -1.331368     4.064560
Ne      -1.871477     0.151955     4.074289
Ne      -0.796180     1.635206     4.069237
Ne       0.570408     2.873134     3.464526
Ne       2.535026     0.150018     3.457552
Ne       0.559549    -2.568285     3.458843
Ne      -2.628678    -1.540005     3.472034
Ne      -2.626242     1.845106     3.485304
Ne       1.239565     1.977035     3.484704
Ne       1.892328    -0.766146     3.480930
Ne      -0.509862    -2.242783     3.484039
Ne      -2.645746    -0.413487     3.503569
Ne      -1.568601     2.205017     3.496247
Ne       1.895660     1.067730     3.482369
Ne       1.232625    -1.673949     3.481363
Ne      -1.574923    -1.899383     3.487116
Ne      -2.644051     0.717826     3.507063
Ne      -0.500931     2.548084     3.491519
Ne       0.864347     3.770929     2.867595
Ne       3.474650     0.149496     2.859950
Ne       0.849069    -3.462667     2.861377
Ne      -3.395806    -2.097637     2.878438
Ne       1.531938     2.877834     2.887475
Ne       2.836662    -0.764334     2.881838
Ne      -0.217542    -3.140730     2.884531
Ne      -3.414267    -0.975464     2.917377
Ne      -2.339399     2.767367     2.906463
Ne       2.192311     1.976334     2.892752
Ne       2.185651    -1.673970     2.889944
Ne      -1.283461    -2.805982     2.894305
Ne      -3.419764     0.152943     2.933880
Ne      -1.271806     3.113714     2.907285
Ne       2.839764     1.065017     2.883087
Ne       1.521398    -2.573927     2.882584
Ne      -2.343107    -2.457453     2.890847
Ne      -3.413669     1.280610     2.925990
Ne      -0.204253     3.447677     2.894084
Ne       1.813904     3.770426     2.276840
Ne       3.768141    -0.757874     2.269472
Ne       0.076717    -4.024255     2.271976
Ne       2.474868     2.871381     2.281006
Ne       3.121854    -1.664634     2.276348
Ne      -0.985890    -3.692000     2.279820
Ne      -2.031224     3.667482     2.304439
Ne       3.127880     1.965957     2.278877
Ne       2.465473    -2.567710     2.276716
Ne      -2.047862    -3.350417     2.281959
Ne      -0.967366     4.004092     2.295835
Ne       3.770962     1.057284     2.270601
Ne       1.802454    -3.462148     2.270480
Ne      -3.106287    -3.003812     2.280173
Ne       0.097439     4.335000     2.283093
Ne       3.260701     2.750460    -0.575061
Ne       3.251329    -2.447208    -0.577846
Ne      -1.683317    -4.067516    -0.576581
Ne      -1.665165     4.398946    -0.559570
Ne       2.793480     3.105057     0.378745
Ne       3.442521    -1.893480     0.374768
Ne      -1.100304    -4.073786     0.377216
Ne      -2.145711     4.062380     0.401872
Ne       3.449330     2.195573     0.376901
Ne       2.783072    -2.800871     0.375155
Ne      -2.165516    -3.732590     0.378730
Ne      -1.078424     4.391787     0.391345
Ne       2.310784     3.443215     1.330720
Ne       3.613805    -1.329378     1.325187
Ne      -0.513352    -4.057799     1.328007
Ne      -2.623702     3.703123     1.356351
Ne       2.972821     2.542925     1.332671
Ne       2.964839    -2.240240     1.329559
Ne      -1.579774    -3.725983     1.333972
Ne      -1.559197     4.042784     1.352313
Ne       3.618381     1.630232     1.326790
Ne       2.298858    -3.138627     1.325950
Ne      -2.638939    -3.377167     1.332108
Ne      -0.494449     4.370353     1.339849
Ne       1.635783     4.330931     1.325652
Ne       0.575198     4.681815     1.328151
Ne       4.247279     0.710363     1.315624
Ne       4.245574    -0.411296     1.315180
Ne       1.620845    -4.022873     1.316613
Ne       0.555309    -4.371889     1.317001
Ne      -3.691205    -3.017230     1.322188
Ne       2.116474     3.995457     0.374256
Ne      -0.007734     4.700709     0.377727
Ne       4.080443     1.271872     0.368577
Ne       4.076734    -0.971465     0.367736
Ne       2.102119    -3.688804     0.368780
Ne      -0.028014    -4.387957     0.369138
Ne      -3.218156    -3.370016     0.371395
Ne       1.058368     4.364242     0.370360
Ne       4.096457     0.150179     0.363762
Ne       1.042221    -4.055117     0.364718
Ne      -3.902336    -2.488884     0.355780
Ne       2.590961     3.649224    -0.577967
Ne      -0.591559     4.712567    -0.573159
Ne       3.901843     1.831189    -0.581296
Ne       3.895777    -1.529421    -0.582170
Ne       2.577580    -3.343657    -0.581568
Ne      -0.612590    -4.392070    -0.582067
Ne      -2.742338    -3.711915    -0.581267
Ne       1.538151     4.028298    -0.584190
Ne       3.928313     0.711819    -0.588588
Ne       1.523493    -3.719465    -0.588628
Ne      -3.427258    -2.834045    -0.595561
Ne       0.474820     4.381628    -0.583863
Ne       3.926252    -0.410428    -0.589163
Ne       0.458227    -4.069582    -0.588620
Ne      -4.097420    -1.941007    -0.608397
Ne       3.058210     3.293191    -1.528616
Ne       3.711964     2.386350    -1.530753
Ne       3.703533    -2.082113    -1.529390
Ne       3.044599    -2.989340    -1.529178
Ne      -1.196783    -4.384004    -1.533045
Ne      -2.259881    -4.044550    -1.532542
Ne       2.008064     3.670867    -1.535873
Ne       3.738454     1.269765    -1.538443
Ne       1.994921    -3.363532    -1.539535
Ne      -2.942524    -3.165519    -1.545163
Ne       0.950786     4.033895    -1.539495
Ne       3.746525     0.150947    -1.543412
Ne       0.936099    -3.722684    -1.543789
Ne      -3.612918    -2.276646    -1.557646
Ne      -0.115650     4.381634    -1.538356
Ne       3.733859    -0.967852    -1.539675
Ne      -0.128733    -4.062346    -1.539767
Ne      -4.276147    -1.376384    -1.565118
Ne       3.531214     1.826637    -2.482489
Ne       2.457017    -2.991398    -2.484125
Ne      -2.441853    -3.490302    -2.489268
Ne       3.538705     0.709845    -2.489951
Ne       1.403009    -3.349148    -2.491184
Ne      -3.111390    -2.600822    -2.501197
Ne       0.362903     4.014991    -2.489387
Ne       3.536053    -0.407576    -2.490581
Ne       0.342639    -3.698649    -2.491374
Ne      -3.777225    -1.707592    -2.509912
Ne       1.419661     3.658187    -2.487317
Ne       3.523343    -1.521354    -2.483950
Ne      -0.720525    -4.038279    -2.484987
Ne       2.473750     3.295996    -2.481700
Ne       0.469333     0.708153    -4.847188
Ne       0.459145    -0.415588    -4.846398
Ne      -0.603907    -0.776092    -4.848694
Ne       1.241731     1.269610    -4.264126
Ne       1.226651    -0.973376    -4.263126
Ne      -0.897731    -1.685568    -4.266662
Ne       1.244351     0.146761    -4.279752
Ne       0.169066    -1.338774    -4.280521
Ne      -1.577081    -0.800930    -4.291931
Ne       0.190714     1.641471    -4.288244
Ne       2.006393     1.830811    -3.672508
Ne       1.992259    -1.530097    -3.672891
Ne      -1.194004    -2.587946    -3.676070
Ne       2.019243     0.709700    -3.696891
Ne       0.937683    -1.898507    -3.697911
Ne      -1.872014    -1.705058    -3.704179
Ne      -0.097519     2.564634    -3.706613
Ne       2.014353    -0.412027    -3.697353
Ne      -0.125698    -2.251843    -3.698450
Ne      -2.543540    -0.813012    -3.714287
Ne       0.957498     2.202187    -3.698582
Ne       2.766012     2.387038    -3.072050
Ne       2.751688    -2.082434    -3.074747
Ne      -1.487475    -3.483844    -3.076423
Ne       2.781572     1.269278    -3.096211
Ne       1.700790    -2.450505    -3.097613
Ne      -2.163126    -2.599736    -3.103021
Ne      -0.395821     3.471331    -3.106074
Ne       2.786620     0.150206    -3.104956
Ne       0.642327    -2.808773    -3.105947
Ne      -2.833449    -1.710814    -3.115643
Ne       0.663672     3.118975    -3.104401
Ne       2.775154    -0.968266    -3.097258
Ne      -0.421653    -3.151646    -3.098390
Ne      -3.498572    -0.811926    -3.119332
Ne       1.715838     2.756065    -3.096022
