18
aligned by OTMol
O       -2.021890     1.676108     0.651722
H       -1.149097     1.417314     1.015471
H       -1.903876     2.578612     0.332015
O       -0.329256    -1.675442    -0.105419
H       -0.181552    -1.051229     0.626505
H       -1.177058    -1.373045    -0.493976
O        2.611217     0.769286     0.104012
H        2.819906     1.529204    -0.452745
H        2.488323     0.016093    -0.526588
O        1.948549    -1.299959    -1.501734
H        2.428835    -2.135823    -1.539201
H        1.078550    -1.520508    -1.080587
O        0.370985     0.606279     1.592835
H        0.621969     0.603514     2.524720
H        1.213815     0.752942     1.092314
O       -2.687423    -0.453514    -1.008160
H       -2.575761     0.356508    -0.465515
H       -3.556198    -0.796298    -0.765630
