180
aligned by OTMol
O       -1.110832    -4.954752    -1.805124
H       -0.815679    -5.608494    -2.445481
H       -0.345850    -4.907397    -1.243643
O        4.297311     5.348824    -3.178933
H        5.189076     5.704275    -3.175756
H        4.287381     4.512465    -3.650105
O        1.684535    -0.271695     5.559120
H        2.538601    -0.300774     5.983828
H        1.111659    -0.854005     6.091697
O        5.168831    -1.167006     3.099042
H        4.922595    -1.021750     2.177959
H        5.811234    -1.873358     3.036442
O        5.825633    -3.858635     0.224320
H        4.930408    -3.657390     0.551043
H        6.414418    -3.983582     0.927527
O        5.456270     0.191637    -2.660653
H        4.929429    -0.465405    -3.061847
H        4.835802     0.907359    -2.550807
O       -0.253964    -1.719196    -7.232813
H       -0.060722    -0.946164    -7.755719
H        0.195574    -2.404847    -7.751132
O        1.524277     4.201103    -0.555157
H        0.984492     4.776978    -1.100622
H        2.150755     3.608592    -1.028448
O       -3.006961     3.467031     0.642870
H       -2.087947     3.647927     0.742495
H       -3.431877     4.245420     1.098202
O        2.137702    -3.151256    -2.529684
H        1.641114    -3.928356    -2.825318
H        1.639007    -2.925428    -1.734063
O       -3.179199    -3.903257     3.943440
H       -3.223985    -3.033362     4.401270
H       -3.938238    -4.387630     4.376170
O        0.373917    -2.554163     3.918093
H       -0.017346    -2.260737     4.766740
H        1.202709    -2.065049     3.923130
O        3.246146    -5.664276     1.040198
H        2.751594    -5.492502     1.886227
H        3.707914    -6.514944     1.349148
O        3.407780    -1.015281    -3.941040
H        2.705145    -0.421638    -4.276445
H        2.996784    -1.717044    -3.452329
O        0.550009     5.428521     3.238387
H        0.847230     4.646711     2.748616
H       -0.024980     5.109143     3.955362
O        2.887278     4.133101     7.016263
H        2.885097     4.363386     6.084295
H        2.677001     3.205161     6.989486
O        0.401955     5.800699    -2.585037
H        0.418113     5.433633    -3.521983
H       -0.434102     6.267285    -2.623338
O       -1.437022    -6.406195     1.342964
H       -1.123575    -5.567692     1.756149
H       -1.761626    -6.183450     0.453883
O       -1.284723     0.707934     7.822657
H       -0.572743     1.324610     7.911788
H       -1.995918     1.296348     7.453423
O        5.172445    -3.689180    -2.547901
H        6.064209    -3.333730    -2.544724
H        5.162515    -4.525540    -3.019074
O       -0.310405     0.995634     4.018275
H        0.098320     1.775561     3.580161
H        0.436179     0.716449     4.578080
O       -3.636963     1.714801     5.176820
H       -3.803088     1.308273     6.034563
H       -2.677678     1.733570     5.161697
O       -3.424365    -0.414625    -0.577862
H       -2.568665    -0.667477    -0.957787
H       -3.448136    -1.018515     0.231362
O       -3.342382    -1.845965     6.013643
H       -2.996552    -1.578520     6.837234
H       -4.217931    -1.600072     6.095604
O        5.184303     0.123580     5.448140
H        5.113629    -0.418057     4.601365
H        5.052084     1.030713     5.129576
O        0.910631    -7.459008    -0.629931
H        0.900701    -8.295368    -1.101104
H        1.802395    -7.103557    -0.626755
O       -3.633989    -3.646932    -1.931285
H       -3.693935    -3.453942    -0.955578
H       -2.727503    -3.916021    -2.058992
O       -4.248492    -3.792015    -6.299604
H       -3.329214    -3.611238    -5.959020
H       -4.329895    -4.697112    -6.076404
O        3.547587     1.901269     1.270395
H        3.985206     1.089798     0.950341
H        4.068270     2.615642     0.914268
O        4.587411     2.374192     3.983713
H        3.964945     2.246142     3.268844
H        5.359533     2.745282     3.487470
O        5.324292    -0.861462     0.215688
H        4.562014    -1.447592    -0.050962
H        5.433700    -0.253851    -0.571823
O       -2.938046    -1.498386    -3.744052
H       -3.228340    -2.355971    -3.384381
H       -3.778723    -1.117516    -3.773666
O        3.247092     6.075650     1.127435
H        2.440379     5.690443     0.825208
H        2.988818     6.923416     1.436402
O        0.880144     2.725331     2.396967
H        0.138287     2.401249     1.829377
H        1.705152     2.466477     1.936196
O        3.617339     2.719197    -1.945256
H        3.148264     2.290100    -2.666791
H        4.040918     3.469981    -2.385608
O       -4.137585    -2.899039     1.055663
H       -5.068843    -2.656521     1.137552
H       -3.888891    -3.346401     1.848512
O        4.210252     1.649866    -5.522516
H        5.147426     1.757925    -5.695191
H        3.989131     0.872071    -6.008444
O       -3.988247     0.189393     2.793954
H       -3.934330     0.757421     3.578635
H       -3.065415     0.031921     2.511624
O       -5.452688    -1.414641    -2.566016
H       -4.899995    -1.869927    -1.911861
H       -5.955638    -0.824374    -2.067588
O        0.509261     0.325640    -0.010602
H       -0.331415     0.706510    -0.040216
H        0.218967    -0.531945     0.349069
O       -1.734823    -3.508706    -5.665162
H       -1.137130    -2.791100    -5.940590
H       -1.069286    -4.172074    -5.548234
O        4.911710    -1.764061    -6.295097
H        4.560066    -1.500084    -5.415739
H        4.289740    -1.448292    -6.946128
O        0.284902     0.988802    -3.071827
H       -0.485372     1.508303    -3.313484
H        0.955598     1.714397    -3.278192
O       -1.890105    -9.139052     1.871111
H       -2.229712    -9.078248     2.763877
H       -1.841436    -8.240175     1.560373
O        0.029587     3.993342     5.903970
H        0.248264     3.609746     6.779366
H       -0.916324     3.816482     5.953040
O       -5.270674     1.154490    -4.779138
H       -5.566803     0.273428    -4.989703
H       -5.667076     1.241554    -3.909147
O       -1.043096    -3.774424     1.835731
H       -0.366887    -3.293079     2.329017
H       -1.802599    -3.615419     2.333113
O       -2.712030     1.404879    -5.834001
H       -3.584612     1.275951    -5.441712
H       -2.241903     1.700910    -5.024170
O        3.120418    -2.747783     0.414477
H        2.908348    -3.741370     0.379029
H        2.270757    -2.265236     0.293434
O       -6.304211     1.330410     1.547818
H       -6.653119     0.492376     1.366304
H       -5.353045     1.103469     1.689177
O        2.380246    -5.441200     3.686492
H        1.501627    -5.390487     4.106899
H        2.731697    -4.552190     3.774484
O       -0.768932    -5.156783     4.602889
H       -0.600429    -4.357053     4.108779
H       -1.726251    -5.160597     4.507838
O       -1.917846     2.771968    -3.692918
H       -2.004251     3.759187    -3.772691
H       -2.678981     2.582730    -3.057567
O       -3.688574     2.130282    -1.741271
H       -3.438448     2.613837    -0.952000
H       -3.639438     1.210217    -1.432643
O        1.971917     2.798640    -4.346057
H        1.480800     3.599159    -4.706132
H        2.754994     2.608094    -4.909828
O       -6.370058     1.689256    -2.289622
H       -5.517302     1.593059    -1.844095
H       -6.909204     2.168918    -1.617545
O        2.021342     8.224269    -1.871304
H        1.669574     7.366357    -1.745106
H        2.890322     7.904950    -1.617313
O       -1.347624     6.794179     1.154622
H       -1.045477     6.387596     2.021880
H       -0.524593     7.176123     0.867387
O       -5.482075     4.233537    -3.774754
H       -5.442886     4.683872    -2.911808
H       -5.534834     3.297492    -3.596496
O       -5.551535     5.929503    -1.486318
H       -6.469777     5.842788    -1.159475
H       -5.010792     6.213553    -0.724695
