21
aligned by OTMol
O        0.002171    -0.055106    -0.335611
H       -0.569064     0.610037     0.115154
H        0.488616    -0.506463     0.392325
O       -3.879249     0.036325     0.070251
H       -4.403181    -0.565965     0.612199
H       -3.344446    -0.552349    -0.510500
O       -1.791892     1.641859     0.874031
H       -2.623844     1.133947     0.738319
H       -1.733547     1.787016     1.826241
O        2.215942     1.139520    -1.477186
H        1.369054     0.745252    -1.162280
H        2.040717     2.087640    -1.524633
O       -2.098966    -1.501836    -1.360101
H       -2.065913    -1.512933    -2.324520
H       -1.263594    -1.059640    -1.079802
O        3.816784     0.153338     0.524004
H        4.606832    -0.259947     0.155695
H        3.359465     0.563157    -0.246637
O        1.620346    -1.097707     1.625799
H        2.490665    -0.742911     1.333337
H        1.763075    -2.043244     1.753833
