24
aligned by OTMol
O        0.976604    -1.950691     0.854002
H        1.455251    -1.625744     0.066439
H        0.075555    -2.126133     0.519895
O        1.982508    -0.538570    -1.399423
H        1.095137    -0.473306    -1.846560
H        2.614510    -0.766440    -2.091989
O       -1.690098    -1.821044    -0.149108
H       -2.461932    -2.397812    -0.098857
H       -1.907077    -1.021286     0.403175
O        0.660667     0.218013     2.383803
H        0.840916    -0.646695     1.923788
H        0.997046     0.117816     3.282589
O       -1.938365     0.451864     1.236049
H       -1.755585     1.154006     0.581546
H       -1.145552     0.456923     1.806916
O        1.501000     1.796427     0.169715
H        1.869391     1.074874    -0.376133
H        1.345069     1.372697     1.036346
O       -0.953492     2.138444    -0.834378
H       -0.021876     2.151688    -0.483104
H       -1.154921     3.045580    -1.094382
O       -0.537479    -0.296249    -2.258583
H       -1.045591    -0.904721    -1.687258
H       -0.801644     0.590238    -1.944368
