27
aligned by OTMol
O        1.335150    -2.374160     0.008886
H        1.816371    -1.612242     0.386410
H        1.084908    -2.066821    -0.884831
O        2.147429     0.123262     1.121453
H        1.285070     0.260278     1.598384
H        2.835998     0.351419     1.757756
O        0.344958    -1.019127    -2.285165
H        0.842198    -0.173222    -2.094954
H        0.453937    -1.183174    -3.229723
O       -0.956444    -2.318253     1.369457
H       -0.087569    -2.468639     0.905107
H       -1.202351    -3.165889     1.758960
O       -2.007643    -0.739812    -0.755827
H       -1.278096    -0.845516    -1.400356
H       -1.800796    -1.389868    -0.056710
O       -0.255738     0.274303     2.308529
H       -0.594115    -0.633941     2.184919
H       -0.894397     0.825172     1.816128
O       -1.953398     1.629093     0.439513
H       -2.035042     0.767457    -0.061285
H       -2.861604     1.927277     0.576558
O        1.664769     1.134776    -1.490525
H        1.961757     0.893647    -0.592012
H        1.089959     1.917637    -1.354343
O       -0.160955     3.191446    -1.024998
H       -0.854615     2.732945    -0.504586
H        0.080187     3.962033    -0.496646
