20
aligned by OTMol
N       -3.860587     6.369834     2.512799
C       -2.995797     7.397185     3.141852
C       -3.827827     8.684224     3.249916
O       -4.930831     8.688382     3.780925
N       -3.316125     9.813047     2.713285
C       -4.090230    11.052650     2.808717
C       -5.384829    10.890552     2.025399
O       -5.385637    10.510659     0.859693
N       -6.503893    11.193961     2.694823
C       -7.817282    11.090659     2.064968
C       -8.367033     9.670769     1.971777
O       -9.372423     9.482747     1.292801
N       -7.704091     8.705187     2.590281
C       -8.201478     7.317557     2.564287
C       -6.989797     6.408131     2.276662
O       -6.545580     5.664206     3.146585
N       -6.430306     6.472389     1.042506
C       -5.269629     5.674073     0.663438
C       -3.996001     6.384312     1.170683
O       -3.209624     6.924475     0.427604
