17
aligned by OTMol
S        1.883044    -1.083418    -1.749769
O        2.506826     0.192518    -2.263649
O        0.424014    -1.009828    -1.452203
O        1.990196    -2.169169    -2.998509
O        2.691859    -1.690796    -0.607643
H        2.884945    -2.054696    -3.366395
H        1.580161     0.738785     0.774232
N        1.688135    -0.148477     1.326439
H        2.292996     0.036196     2.128017
H        2.175417    -0.826255     0.661646
C        0.364189    -0.697608     1.733767
H        0.519099    -1.628131     2.292831
H       -0.192432    -0.902799     0.812089
H       -0.161988     0.035299     2.357899
O        1.624276     2.004726    -0.400496
H        0.792492     2.375546    -0.723821
H        1.961750     1.479118    -1.168435
