17
aligned by OTMol
S        2.031935    -1.119850    -1.694792
O        2.353728     0.186496    -2.379537
O        0.580882    -1.278079    -1.359918
O        2.454200    -2.303534    -2.780484
O        2.937875    -1.449722    -0.522532
H        2.124848    -1.988321    -3.641476
H        1.358908     0.750420     0.750552
N        1.570024    -0.092098     1.332263
H        2.120854     0.208356     2.138010
H        2.182728    -0.696817     0.701489
C        0.335448    -0.821157     1.737908
H        0.620394    -1.709991     2.313475
H       -0.176279    -1.118952     0.816233
H       -0.295929    -0.161514     2.345676
O        1.359494     1.958716    -0.519386
H        1.757811     2.834664    -0.587149
H        1.708060     1.452393    -1.294332
