17
aligned by OTMol
S        2.229103    -1.081717    -1.826666
O        2.572335     0.266895    -2.409527
O        0.745624    -1.325716    -1.732357
O        2.857025    -2.194433    -2.885760
O        2.951768    -1.416018    -0.541908
H        2.662916    -1.840633    -3.772496
H        1.762134    -0.915101     0.622541
N        0.874063    -0.413481     0.878003
H        1.033449     0.568588     0.555759
H        0.197108    -0.819970     0.217123
C        0.486499    -0.522656     2.302834
H        1.286355    -0.098359     2.921522
H       -0.445161     0.030308     2.473329
H        0.344770    -1.579259     2.559362
O        1.478482     1.923140    -0.479342
H        2.118356     2.614812    -0.268836
H        1.870154     1.454611    -1.257581
