17
aligned by OTMol
S        1.896269    -1.229176    -2.090812
O        1.932450    -2.065204    -3.311017
O        0.802429    -0.194861    -1.968416
O        3.263898    -0.235947    -2.157466
O        2.052259    -2.002767    -0.784452
H        3.921409    -0.750842    -2.657590
H        1.123338     0.531905     0.623227
N        0.725566    -0.404212     0.852493
H        1.298996    -1.100904     0.272901
H       -0.211366    -0.419012     0.442244
C        0.728426    -0.712030     2.302180
H        1.765803    -0.695531     2.657209
H        0.305598    -1.711507     2.459843
H        0.138322     0.035173     2.846881
O        1.511891     1.932437    -0.405687
H        2.385550     2.323390    -0.536470
H        1.384142     1.350099    -1.189070
