17
aligned by OTMol
S        2.663091    -1.120904    -1.567812
O        3.825944    -1.729747    -2.250017
O        2.892980     0.127683    -0.751850
O        1.656621    -0.517287    -2.787620
O        1.783967    -2.112036    -0.810950
H        1.799009    -1.112207    -3.544969
H        0.352217     0.293717     0.403676
N        0.511044    -0.592517     0.935189
H       -0.385153    -0.969746     1.245659
H        0.964269    -1.270577     0.236064
C        1.443177    -0.354445     2.072874
H        1.619873    -1.302973     2.594046
H        2.380710     0.017469     1.644615
H        1.010702     0.383864     2.759083
O        0.694493     1.710319    -0.573553
H        0.254096     1.889606    -1.414713
H        1.557941     1.310790    -0.833723
