17
aligned by OTMol
S        2.537068    -1.220754    -1.608958
O        3.774817    -1.939562    -1.989156
O        2.688454     0.136374    -0.963869
O        1.753946    -0.829295    -3.039818
O        1.531090    -2.072572    -0.835771
H        2.001201    -1.536885    -3.661192
H        0.326539     0.423407     0.535579
N        0.496018    -0.496671     0.988759
H       -0.381294    -0.850512     1.372277
H        0.842455    -1.163491     0.214893
C        1.556779    -0.380066     2.027710
H        1.742830    -1.371307     2.458017
H        2.459258    -0.017849     1.522385
H        1.240525     0.322037     2.808947
O        0.515284     1.700465    -0.661144
H        0.590054     2.649259    -0.814369
H        1.349956     1.298432    -0.998290
