28
aligned by OTMol
N        1.090257     8.514768     3.918770
C        1.085107     9.243142     2.650748
C        1.722360     8.303886     1.618517
O        2.889162     8.446627     1.222982
N        0.953991     7.288773     1.216841
C        1.481463     6.286227     0.332608
C        1.813054     6.917966    -1.024634
O        1.138484     7.858029    -1.439350
N        2.802036     6.383847    -1.754878
C        3.631953     5.198194    -1.426599
C        4.944836     5.533918    -0.693742
O        5.789715     4.688366    -0.596670
N        5.067453     6.785459    -0.191364
C        6.323788     7.182472     0.442573
C        6.324963     7.021856     1.950554
O        7.409339     7.045580     2.572439
N        5.156121     6.871570     2.592603
C        5.065671     6.879971     4.034681
C        3.745228     6.175236     4.385257
O        2.797734     6.257494     3.607063
N        3.694473     5.534488     5.540254
C        2.465432     4.817138     5.966945
C        1.211836     5.732872     5.937681
O        0.111099     5.228545     5.731456
N        1.409236     7.022412     6.176521
C        0.346308     8.009968     6.195558
C        0.235574     8.829230     4.902707
O       -0.583672     9.743967     4.813477
