37
4csv_imatinib_model_23_chainB.pdb
C          8.74600       -3.57500        8.18100
C          8.28200       -2.41500        7.30900
C          9.13100       -1.37900        7.00500
C          8.70900       -0.31900        6.21000
C          7.40700       -0.26100        5.72000
C          6.55200       -1.29300        6.02600
C          6.95800       -2.37600        6.81700
N          6.06100       -3.39000        7.13000
C          5.94200       -4.54900        6.41400
N          6.70800       -4.69200        5.31300
C          6.57400       -5.88200        4.63800
C          5.67100       -6.87000        5.07600
C          4.93300       -6.63400        6.22800
N          5.07500       -5.46300        6.89200
C          3.97400       -7.60300        6.78400
C          3.72400       -8.82700        6.17900
C          2.81600       -9.69800        6.73800
C          2.15800       -9.33500        7.89500
N          2.38500       -8.16300        8.49500
C          3.28200       -7.30400        7.94700
N          7.05100        0.88400        4.95900
C          5.79900        1.22100        4.49600
O          4.86800        0.46100        4.59200
C          5.60400        2.55700        3.86200
C          4.30600        3.00600        3.55200
C          4.08400        4.25200        2.97000
C          5.15100        5.09800        2.68400
C          6.44100        4.66400        2.99800
C          6.65700        3.40900        3.58000
C          4.91600        6.44400        2.06200
N          5.72200        6.66400        0.87400
C          5.29500        5.77600       -0.21100
C          6.16500        5.97700       -1.44500
N          6.11000        7.38400       -1.88900
C          6.50700        8.28500       -0.81100
C          5.62400        8.06400        0.43100
C          6.98300        7.57200       -3.05800
