71
4csv_imatinib_model_9_chainB_pH74.pdb
C        -10.82000        1.84100       -3.91400
C         -9.67600        0.84300       -3.84000
C         -9.62700       -0.22500       -4.69600
C         -8.58700       -1.13600       -4.63000
C         -7.57900       -1.00600       -3.68600
C         -7.62000        0.06000       -2.82100
C         -8.65400        0.99100       -2.87200
N         -8.68400        2.03400       -1.96400
C         -8.17600        3.28000       -2.21000
N         -7.58500        3.50100       -3.39900
C         -7.11200        4.77500       -3.61200
C         -7.23500        5.76500       -2.62100
C         -7.86700        5.44300       -1.42600
N         -8.33500        4.18900       -1.22900
C         -8.05700        6.40800       -0.32800
C         -7.58300        7.71100       -0.40100
C         -7.78100        8.57600        0.65000
C         -8.44700        8.13200        1.77200
N         -8.91200        6.88600        1.86600
C         -8.72200        6.03100        0.83100
N         -6.59100       -2.01000       -3.67000
C         -5.60500       -2.18400       -2.73900
O         -5.40900       -1.37600       -1.86400
C         -4.76700       -3.40700       -2.83300
C         -4.84300       -4.28200       -3.88600
C         -4.05400       -5.42300       -3.92800
C         -3.16500       -5.72000       -2.90600
C         -3.07300       -4.84300       -1.82800
C         -3.87100       -3.70800       -1.79200
C         -2.31400       -6.94600       -2.93600
N         -1.62800       -7.13300       -4.19000
C         -0.66800       -6.05200       -4.41500
C          0.05100       -6.24100       -5.74100
N          0.73500       -7.54700       -5.77000
C         -0.21300       -8.63200       -5.53100
C         -0.93900       -8.42800       -4.19500
C          1.40900       -7.73500       -7.05700
H        -11.48600        1.56200       -4.70300
H        -10.42900        2.81800       -4.10600
H        -11.35000        1.84500       -2.98500
H        -10.37300       -0.35200       -5.39700
H         -8.56100       -1.92500       -5.29400
H         -6.87100        0.17300       -2.12000
H         -9.09700        1.86900       -1.08600
H         -7.61700        5.14700       -4.47900
H         -6.05400        4.62800       -3.67000
H         -6.86200        6.71400       -2.77800
H         -7.08200        8.03100       -1.24400
H         -7.43500        9.54700        0.59900
H         -8.59000        8.78200        2.56100
H         -9.08400        5.06800        0.90700
H         -6.61300       -2.65800       -4.41100
H         -5.49800       -4.08900       -4.66000
H         -4.13000       -6.06200       -4.73500
H         -2.41300       -5.03700       -1.05800
H         -3.80500       -3.07100       -0.98300
H         -1.58400       -6.87200       -2.15700
H         -2.96300       -7.78600       -2.80100
H         -2.31500       -7.11800       -4.94400
H         -1.18800       -5.11700       -4.42700
H          0.05500       -6.06400       -3.62600
H         -0.66100       -6.19800       -6.53800
H          0.77800       -5.46400       -5.85700
H          1.43300       -7.56200       -5.02700
H          0.31600       -9.56200       -5.50600
H         -0.93600       -8.63900       -6.32000
H         -0.22600       -8.45300       -3.39700
H         -1.65900       -9.20900       -4.06400
H          0.68500       -7.72000       -7.84400
H          1.91900       -8.67600       -7.05900
H          2.11600       -6.94600       -7.20800
