37
4csv_imatinib_model_22_chainB.pdb
C         -4.05700       12.62900       -2.91400
C         -4.36700       11.43900       -2.01700
C         -5.62100       11.27200       -1.48500
C         -5.90300       10.19100       -0.66100
C         -4.92500        9.26200       -0.33300
C         -3.66400        9.42000       -0.86300
C         -3.35900       10.49900       -1.69900
N         -2.07300       10.66100       -2.18100
C         -1.62800       10.17800       -3.38300
N         -2.48700        9.47100       -4.14200
C         -2.00100        9.02800       -5.35300
C         -0.68000        9.29600       -5.74600
C          0.12900       10.04200       -4.89800
N         -0.35700       10.48100       -3.71200
C          1.52400       10.39500       -5.21600
C          2.13900        9.99100       -6.39700
C          3.44500       10.34100       -6.65100
C          4.13400       11.09000       -5.71800
N          3.56400       11.48900       -4.58000
C          2.27600       11.14900       -4.32800
N         -5.30100        8.22800        0.55200
C         -4.49000        7.28300        1.12700
O         -3.32900        7.17500        0.81400
C         -5.07500        6.38200        2.16000
C         -6.41400        6.36300        2.45800
C         -6.91600        5.52100        3.44300
C         -6.08100        4.67100        4.16000
C         -4.71500        4.67900        3.87200
C         -4.22200        5.52500        2.89100
C         -6.61100        3.76500        5.21900
N         -7.73300        2.98900        4.77500
C         -7.32900        2.05200        3.72200
C         -8.52000        1.24300        3.24200
N         -9.13000        0.51300        4.37000
C         -9.51800        1.43900        5.43500
C         -8.30800        2.25500        5.90500
C        -10.30400       -0.23500        3.90800
