71
4csv_imatinib_model_12_chainB_pH74.pdb
C         11.63200       -0.15600        0.73500
C         10.45300        0.67900        1.21200
C         10.60000        2.02400        1.45900
C          9.52500        2.78600        1.89800
C          8.28500        2.21100        2.12400
C          8.12900        0.86600        1.87800
C          9.19400        0.07800        1.42900
N          9.01800       -1.28100        1.23500
C          8.68700       -1.86900        0.04400
N          8.48800       -1.07100       -1.02100
C          8.18000       -1.70900       -2.20300
C          8.06500       -3.11000       -2.26300
C          8.29400       -3.85200       -1.10800
N          8.60500       -3.21800        0.04600
C          8.20900       -5.32500       -1.05900
C          7.88800       -6.08300       -2.17700
C          7.81600       -7.45500       -2.08100
C          8.05500       -8.06100       -0.86800
N          8.36400       -7.35300        0.22200
C          8.44000       -6.00000        0.13100
N          7.27100        3.05900        2.61900
C          6.04800        2.69200        3.11200
O          5.65700        1.55400        3.03500
C          5.20000        3.74000        3.74300
C          5.55900        5.06900        3.77600
C          4.74900        6.01600        4.39300
C          3.55500        5.65900        5.00000
C          3.17100        4.31500        4.98200
C          3.99000        3.37300        4.36600
C          2.68300        6.67300        5.66400
N          2.43200        7.82800        4.83900
C          1.67900        7.45500        3.64300
C          1.43100        8.67000        2.76400
N          0.70900        9.70900        3.52100
C          1.44600       10.07600        4.72600
C          1.69300        8.84100        5.60300
C          0.50100       10.89100        2.67800
H         11.31900       -1.17000        0.60000
H         12.41400       -0.11800        1.46400
H         11.99200        0.23300       -0.19500
H         11.51900        2.47200        1.31700
H          9.65200        3.79700        2.05900
H          7.20600        0.42900        2.02800
H          9.14000       -1.87000        2.01400
H          7.24000       -1.31300       -2.52600
H          9.04400       -1.51800       -2.80500
H          7.81500       -3.57900       -3.14800
H          7.70300       -5.61800       -3.08000
H          7.58500       -8.02400       -2.91100
H          7.99400       -9.08900       -0.79900
H          8.67700       -5.45600        0.97500
H          7.46600        4.02400        2.60800
H          6.44400        5.36700        3.33600
H          5.04300        7.00500        4.39900
H          2.28500        4.02300        5.42300
H          3.70400        2.38100        4.36500
H          1.74600        6.21400        5.90100
H          3.19600        7.01100        6.54000
H          3.32900        8.21700        4.54800
H          2.23600        6.72900        3.08900
H          0.73600        7.04900        3.94300
H          2.36900        9.06300        2.43200
H          0.83800        8.37700        1.92300
H         -0.19800        9.33400        3.80000
H          0.87900       10.79400        5.28100
H          2.39000       10.49200        4.44100
H          0.75400        8.43500        5.91700
H          2.26700        9.12500        6.46000
H          1.44900       11.28900        2.38200
H         -0.04000       11.63100        3.22900
H         -0.05700       10.61500        1.80800
