71
4csv_imatinib_model_8_chainB_pH74.pdb
C         12.25200        0.83300       -3.15100
C         11.04200        1.54700       -2.56300
C         10.92900        2.91300       -2.64100
C          9.82600        3.56500       -2.10400
C          8.82000        2.86000       -1.45800
C          8.92700        1.49100       -1.37500
C         10.02300        0.81300       -1.91400
N         10.11900       -0.56300       -1.78500
C          9.68800       -1.46200       -2.72300
N          9.08500       -0.98100       -3.82700
C          8.68800       -1.91800       -4.75400
C          8.89500       -3.29300       -4.53300
C          9.53400       -3.69300       -3.36400
N          9.92900       -2.76500       -2.46100
C          9.81500       -5.10800       -3.04000
C          9.46000       -6.15000       -3.88600
C          9.74100       -7.45500       -3.53600
C         10.36600       -7.70800       -2.33200
N         10.72000       -6.72200       -1.50300
C         10.44800       -5.43500       -1.84600
N          7.76300        3.61900       -0.90900
C          6.75900        3.16900       -0.09200
O          6.62100        1.99300        0.15500
C          5.82900        4.17800        0.48800
C          5.84800        5.51000        0.12500
C          4.97000        6.42400        0.70400
C          4.04800        6.03000        1.66600
C          4.01500        4.68600        2.04900
C          4.89900        3.77700        1.46700
C          3.10700        7.00200        2.29800
N          2.40600        7.82300        1.34300
C          1.48400        7.01600        0.53800
C          0.75100        7.89500       -0.46800
N          0.02000        8.97000        0.22800
C          0.93000        9.76900        1.04500
C          1.66500        8.87300        2.05200
C         -0.66500        9.83600       -0.74200
H         12.90800        1.55100       -3.59700
H         11.92800        0.13600       -3.89500
H         12.77000        0.31100       -2.37400
H         11.67100        3.46100       -3.10300
H          9.75300        4.59100       -2.18700
H          8.18200        0.95400       -0.90500
H         10.52500       -0.91900       -0.96200
H          7.63400       -1.78700       -4.88600
H          9.33300       -1.71500       -5.58300
H          8.57900       -3.99000       -5.22500
H          8.98400       -5.94800       -4.77900
H          9.48700       -8.23200       -4.16600
H         10.56500       -8.68500       -2.06500
H         10.72000       -4.67700       -1.20000
H          7.74600        4.57600       -1.13800
H          6.52300        5.83400       -0.58600
H          5.00500        7.41300        0.41300
H          3.33900        4.36700        2.76000
H          4.87100        2.78800        1.76100
H          2.38600        6.45400        2.86800
H          3.69200        7.65700        2.90900
H          3.08800        8.24900        0.71500
H          2.03800        6.26600        0.01300
H          0.76700        6.55700        1.18600
H          1.46100        8.32900       -1.14100
H          0.05200        7.29400       -1.01100
H         -0.67400        8.53700        0.83700
H          0.37000       10.51100        1.57500
H          1.64900       10.24000        0.40700
H          0.95200        8.42100        2.71000
H          2.35300        9.46900        2.61500
H          0.05800       10.29400       -1.38400
H         -1.21000       10.59500       -0.22000
H         -1.34200        9.25000       -1.32800
