71
4csv_imatinib_model_38_chainB_pH74.pdb
C         11.53000       -0.58300        3.82000
C         10.26400       -0.08600        4.50000
C         10.31800        0.51600        5.73200
C          9.16300        0.96900        6.35800
C          7.91700        0.80100        5.77200
C          7.85300        0.19900        4.53400
C          9.00600       -0.25700        3.88200
N          8.91000       -0.89300        2.65300
C          9.02300       -0.25200        1.45100
N          9.17900        1.08500        1.46700
C          9.30300        1.68900        0.23800
C          9.25100        0.94000       -0.95100
C          9.10000       -0.43800       -0.86700
N          8.98500       -1.02800        0.34700
C          9.04500       -1.31900       -2.05000
C          9.09500       -0.81800       -3.34600
C          9.03200       -1.67600       -4.41900
C          8.91100       -3.03100       -4.19200
N          8.86200       -3.53300       -2.95700
C          8.92700       -2.68900       -1.89500
N          6.79300        1.24300        6.51600
C          5.46600        1.02300        6.23800
O          5.12100        0.51500        5.20100
C          4.44700        1.42200        7.25300
C          3.09200        1.10200        7.04900
C          2.11700        1.44400        7.98000
C          2.46300        2.10100        9.15500
C          3.80500        2.41700        9.36600
C          4.78000        2.07700        8.42400
C          1.41500        2.45300       10.16600
N          1.40600        3.85200       10.51900
C          1.01900        4.67900        9.37500
C          1.02900        6.15100        9.75300
N          0.11600        6.39500       10.88600
C          0.47500        5.56200       12.02700
C          0.47600        4.08100       11.63200
C          0.15700        7.81100       11.27100
H         11.28000       -1.01800        2.87500
H         12.00200       -1.31800        4.43800
H         12.19900        0.23800        3.66900
H         11.23000        0.63400        6.20100
H          9.23300        1.43800        7.27400
H          6.93500        0.08100        4.07700
H          8.75100       -1.86500        2.64600
H          8.51700        2.41200        0.17500
H         10.31500        2.03600        0.25000
H          9.32400        1.40600       -1.86900
H          9.17900        0.19800       -3.50300
H          9.07500       -1.31000       -5.38300
H          8.85700       -3.67300       -4.99800
H          8.88700       -3.08200       -0.94200
H          6.98700        1.76900        7.32600
H          2.81600        0.60200        6.18900
H          1.12900        1.20800        7.79700
H          4.08200        2.90900       10.23000
H          5.76700        2.31900        8.60600
H          1.59300        1.88100       11.05200
H          0.46500        2.23200        9.72600
H          2.35000        4.11500       10.80300
H          1.70900        4.51700        8.57400
H          0.03000        4.40700        9.07100
H          0.71300        6.73300        8.91300
H          2.02100        6.43000       10.03900
H         -0.83100        6.15400       10.59200
H         -0.23500        5.71600       12.81300
H          1.45600        5.83200       12.35800
H          0.77900        3.49200       12.47200
H         -0.51000        3.80200       11.32500
H          1.14900        8.06800       11.58000
H         -0.52400        7.98100       12.07900
H         -0.12400        8.41600       10.43500
