37
4csv_imatinib_model_8_chainB.pdb
C         12.25200        0.83300       -3.15100
C         11.04200        1.54700       -2.56300
C         10.92900        2.91300       -2.64100
C          9.82600        3.56500       -2.10400
C          8.82000        2.86000       -1.45800
C          8.92700        1.49100       -1.37500
C         10.02300        0.81300       -1.91400
N         10.11900       -0.56300       -1.78500
C          9.68800       -1.46200       -2.72300
N          9.08500       -0.98100       -3.82700
C          8.68800       -1.91800       -4.75400
C          8.89500       -3.29300       -4.53300
C          9.53400       -3.69300       -3.36400
N          9.92900       -2.76500       -2.46100
C          9.81500       -5.10800       -3.04000
C          9.46000       -6.15000       -3.88600
C          9.74100       -7.45500       -3.53600
C         10.36600       -7.70800       -2.33200
N         10.72000       -6.72200       -1.50300
C         10.44800       -5.43500       -1.84600
N          7.76300        3.61900       -0.90900
C          6.75900        3.16900       -0.09200
O          6.62100        1.99300        0.15500
C          5.82900        4.17800        0.48800
C          5.84800        5.51000        0.12500
C          4.97000        6.42400        0.70400
C          4.04800        6.03000        1.66600
C          4.01500        4.68600        2.04900
C          4.89900        3.77700        1.46700
C          3.10700        7.00200        2.29800
N          2.40600        7.82300        1.34300
C          1.48400        7.01600        0.53800
C          0.75100        7.89500       -0.46800
N          0.02000        8.97000        0.22800
C          0.93000        9.76900        1.04500
C          1.66500        8.87300        2.05200
C         -0.66500        9.83600       -0.74200
