71
4csv_imatinib_model_40_chainB_pH74.pdb
C         12.23900       -7.10400       -2.73300
C         11.09600       -7.06100       -1.73000
C         11.26900       -7.52100       -0.44700
C         10.22700       -7.48400        0.47000
C          8.97200       -7.00300        0.11200
C          8.78900       -6.54200       -1.17400
C          9.82900       -6.56500       -2.11100
N          9.60500       -6.13100       -3.41000
C          9.80300       -4.84600       -3.83900
N         10.20200       -3.93200       -2.93500
C         10.41700       -2.65500       -3.41400
C         10.20400       -2.34600       -4.77000
C          9.79800       -3.36000       -5.63100
N          9.59500       -4.61200       -5.15400
C          9.55900       -3.14500       -7.07000
C          9.69700       -1.89600       -7.66900
C          9.45900       -1.74500       -9.01800
C          9.07800       -2.84500       -9.76300
N          8.93700       -4.05100       -9.21000
C          9.17200       -4.20500       -7.88200
N          7.95900       -7.05100        1.09700
C          6.61600       -6.80600        0.93000
O          6.17600       -6.37800       -0.11000
C          5.69800       -7.08200        2.07100
C          4.30600       -6.99200        1.88400
C          3.42000       -7.25100        2.92000
C          3.89400       -7.61900        4.17600
C          5.27100       -7.71500        4.36600
C          6.15500       -7.45000        3.32200
C          2.94100       -7.90300        5.29200
N          3.20400       -7.10600        6.47200
C          2.97400       -5.68400        6.20600
C          3.27600       -4.84700        7.44200
N          2.43700       -5.29200        8.57700
C          2.65100       -6.71600        8.84100
C          2.35000       -7.54700        7.58300
C          2.76000       -4.51000        9.77400
H         11.90800       -6.70400       -3.66900
H         12.55500       -8.11700       -2.87000
H         13.05800       -6.52100       -2.36600
H         12.18600       -7.89900       -0.16100
H         10.38600       -7.81900        1.43300
H          7.86600       -6.17200       -1.45200
H          9.28300       -6.79000       -4.06600
H          9.77900       -2.00700       -2.85000
H         11.47500       -2.53800       -3.30900
H         10.34600       -1.38500       -5.11900
H          9.97800       -1.08100       -7.10200
H          9.56400       -0.82200       -9.46700
H          8.89800       -2.73100      -10.77300
H          9.06000       -5.14000       -7.46100
H          8.24800       -7.28700        2.00800
H          3.93700       -6.72800        0.95700
H          2.40400       -7.17000        2.75800
H          5.64100       -7.98600        5.29100
H          7.17100       -7.53000        3.48600
H          3.02000       -8.93700        5.55400
H          1.95900       -7.65400        4.94800
H          4.18300       -7.23400        6.72800
H          1.95100       -5.54000        5.92600
H          3.62400       -5.37400        5.41400
H          3.07000       -3.81800        7.23200
H          4.30700       -4.96600        7.70200
H          1.45700       -5.14700        8.33500
H          3.66900       -6.87100        9.13100
H          1.99300       -7.02500        9.62600
H          2.54000       -8.58000        7.78700
H          1.32400       -7.41300        7.31100
H          3.78800       -4.66000       10.03100
H          2.13900       -4.82800       10.58600
H          2.58900       -3.47200        9.57900
