71
4csv_imatinib_model_35_chainB_pH74.pdb
C          1.80800       10.92000       -5.99600
C          2.36900        9.51200       -6.09900
C          3.62300        9.29300       -6.61000
C          4.13600        8.00700       -6.70400
C          3.38900        6.90400       -6.30900
C          2.12800        7.11600       -5.80000
C          1.59800        8.40300       -5.68700
N          0.31700        8.58200       -5.20000
C          0.02300        8.84000       -3.89000
N          1.03600        8.85600       -3.00100
C          0.69400        9.14500       -1.70000
C         -0.64300        9.38500       -1.33900
C         -1.61800        9.35400       -2.32900
N         -1.27200        9.07600       -3.60700
C         -3.04400        9.60400       -2.06400
C         -3.52300        9.89200       -0.79000
C         -4.86800       10.11500       -0.59100
C         -5.72900       10.04900       -1.66800
N         -5.29200        9.77700       -2.89800
C         -3.97000        9.55600       -3.10000
N          3.97700        5.63300       -6.48400
C          3.38700        4.40300       -6.32700
O          2.26900        4.28900       -5.88700
C          4.17100        3.20200       -6.72700
C          3.53900        1.95300       -6.81800
C          4.24000        0.81600       -7.20500
C          5.59400        0.89400       -7.52000
C          6.22300        2.13200       -7.43300
C          5.51300        3.26900       -7.04300
C          6.34500       -0.32800       -7.95300
N          7.55000       -0.56400       -7.18400
C          7.22300       -0.97100       -5.81900
C          8.48900       -1.20200       -5.01000
N          9.34300       -2.22100       -5.65900
C          9.66500       -1.82300       -7.02600
C          8.37800       -1.59000       -7.83400
C         10.57800       -2.40700       -4.89300
H          2.53400       11.62000       -6.35300
H          1.57500       11.13700       -4.97400
H          0.92000       10.99400       -6.58800
H          4.19100       10.09400       -6.92800
H          5.08900        7.86700       -7.07400
H          1.56300        6.30800       -5.49600
H         -0.43100        8.52000       -5.83700
H          1.24400       10.02100       -1.42800
H          0.91500        8.23100       -1.19000
H         -0.89600        9.58000       -0.35800
H         -2.87000        9.93900        0.00700
H         -5.22800       10.32900        0.35200
H         -6.73600       10.21400       -1.51700
H         -3.64000        9.34500       -4.05500
H          4.92500        5.62800       -6.75100
H          2.53500        1.87600       -6.59300
H          3.75300       -0.09200       -7.25900
H          7.22700        2.21100       -7.66000
H          6.00100        4.17700       -6.99000
H          6.61600       -0.21300       -8.98200
H          5.70000       -1.16800       -7.79700
H          8.07800        0.30800       -7.14200
H          6.65500       -1.87700       -5.84900
H          6.65500       -0.19200       -5.35400
H          8.22300       -1.53800       -4.03000
H          9.03300       -0.28300       -4.95100
H          8.83000       -3.10200       -5.68500
H         10.23600       -0.91900       -7.00400
H         10.23000       -2.60400       -7.49100
H          8.63400       -1.26500       -8.82100
H          7.82600       -2.50500       -7.88300
H         11.12100       -1.48500       -4.86200
H         11.17800       -3.15900       -5.36100
H         10.33700       -2.71300       -3.89600
