71
4csv_imatinib_model_29_chainB_pH74.pdb
C          7.45600      -10.84300       -2.92200
C          6.06700      -10.24900       -3.11200
C          4.97400      -11.06000       -3.29600
C          3.70700      -10.51500       -3.47300
C          3.50900       -9.13900       -3.49300
C          4.60000       -8.32200       -3.31400
C          5.88400       -8.84800       -3.12700
N          6.96600       -7.99900       -2.98000
C          7.46200       -7.59200       -1.77100
N          6.86900       -8.05600       -0.65400
C          7.41900       -7.63700        0.53700
C          8.52200       -6.76500        0.56100
C          9.07000       -6.35000       -0.64700
N          8.52800       -6.77000       -1.81500
C         10.23600       -5.45200       -0.74000
C         10.86200       -4.93400        0.38400
C         11.94900       -4.09900        0.24600
C         12.39900       -3.78200       -1.01900
N         11.81100       -4.27000       -2.11400
C         10.74200       -5.09300       -1.98300
N          2.19000       -8.68600       -3.72400
C          1.76700       -7.40200       -3.97700
O          2.51900       -6.45800       -3.90200
C          0.33400       -7.20800       -4.35300
C         -0.59600       -8.22100       -4.28000
C         -1.92100       -8.00800       -4.65400
C         -2.35300       -6.77100       -5.11400
C         -1.42400       -5.73000       -5.19500
C         -0.10100       -5.95100       -4.82300
C         -3.77300       -6.53900       -5.52500
N         -4.72800       -6.92700       -4.50400
C         -4.62600       -6.04200       -3.33800
C         -5.61900       -6.45700       -2.25900
N         -6.99500       -6.44300       -2.79400
C         -7.10300       -7.31400       -3.96200
C         -6.09400       -6.88900       -5.04500
C         -7.94500       -6.87600       -1.76200
H          7.39300      -11.91100       -2.93900
H          7.85500      -10.52400       -1.98200
H          8.09700      -10.51100       -3.71200
H          5.09400      -12.08500       -3.30300
H          2.89800      -11.14400       -3.59200
H          4.47000       -7.29800       -3.31800
H          7.40700       -7.66700       -3.79500
H          7.71900       -8.52100        1.06000
H          6.63800       -7.03800        0.95800
H          8.91700       -6.44000        1.45700
H         10.51300       -5.17400        1.32500
H         12.42100       -3.71500        1.07900
H         13.21000       -3.15200       -1.12200
H         10.29000       -5.46400       -2.83300
H          1.48700       -9.37500       -3.70100
H         -0.30700       -9.15300       -3.94300
H         -2.59600       -8.78600       -4.58800
H         -1.71800       -4.79900       -5.53000
H          0.57800       -5.17700       -4.89300
H         -3.96900       -7.10800       -6.41000
H         -3.89100       -5.48900       -5.69200
H         -4.51400       -7.88000       -4.20900
H         -4.83500       -5.03700       -3.64000
H         -3.63600       -6.11100       -2.93900
H         -5.55300       -5.77400       -1.43800
H         -5.38300       -7.44800       -1.93300
H         -7.21900       -5.48900       -3.07600
H         -6.90100       -8.32300       -3.66900
H         -8.09300       -7.23700       -4.36100
H         -6.16400       -7.55900       -5.87700
H         -6.31800       -5.89200       -5.36100
H         -7.71500       -7.87700       -1.46300
H         -8.93900       -6.84100       -2.15500
H         -7.87300       -6.22500       -0.91600
