71
4csv_imatinib_model_33_chainB_pH74.pdb
C         11.24000       -8.33600        1.99900
C         10.55600       -7.56800        0.88100
C         10.72800       -7.94300       -0.42400
C         10.10700       -7.24200       -1.44500
C          9.31600       -6.13700       -1.17600
C          9.14200       -5.75100        0.12600
C          9.75100       -6.44400        1.16800
N          9.58100       -6.00700        2.46400
C          8.62200       -6.47700        3.31500
N          7.76400       -7.40100        2.85000
C          6.83400       -7.86100        3.74700
C          6.79000       -7.36800        5.06400
C          7.72600       -6.41500        5.44900
N          8.63900       -5.97100        4.56200
C          7.78000       -5.83700        6.80200
C          6.90300       -6.22300        7.80600
C          6.99000       -5.65300        9.05400
C          7.94800       -4.69500        9.29000
N          8.80600       -4.30900        8.34100
C          8.72400       -4.86900        7.11000
N          8.76200       -5.47100       -2.28200
C          8.06400       -4.30000       -2.27500
O          7.74700       -3.74900       -1.25100
C          7.69700       -3.72400       -3.59100
C          7.88500       -4.40000       -4.76700
C          7.54400       -3.82800       -5.98000
C          7.00700       -2.55400       -6.04800
C          6.81000       -1.84700       -4.86100
C          7.16000       -2.42700       -3.65100
C          6.63800       -1.93100       -7.34900
N          5.83900       -2.79300       -8.17400
C          4.52800       -3.03000       -7.55800
C          3.69100       -3.94800       -8.42700
N          3.53500       -3.37400       -9.77500
C          4.84000       -3.13200      -10.38500
C          5.67600       -2.20200       -9.50100
C          2.74900       -4.28100      -10.61900
H         11.80000       -9.14800        1.58300
H         10.50200       -8.72000        2.67200
H         11.90000       -7.68200        2.52900
H         11.32500       -8.75400       -0.64900
H         10.23600       -7.54800       -2.42200
H          8.55000       -4.93300        0.33800
H         10.19100       -5.31000        2.79800
H          6.98200       -8.91800        3.82300
H          5.91300       -7.50700        3.33300
H          6.07800       -7.70700        5.73000
H          6.18500       -6.93900        7.61500
H          6.34400       -5.94100        9.80500
H          8.00600       -4.26300       10.22500
H          9.38500       -4.56500        6.37800
H          8.89200       -5.89700       -3.16000
H          8.28700       -5.35000       -4.74800
H          7.69300       -4.36200       -6.85100
H          6.40600       -0.89800       -4.88400
H          7.02300       -1.89500       -2.77700
H          6.08500       -1.03600       -7.15400
H          7.54600       -1.73100       -7.87800
H          6.31600       -3.69000       -8.26600
H          4.66700       -3.48300       -6.59900
H          4.02000       -2.09400       -7.45400
H          4.17400       -4.90000       -8.50200
H          2.72400       -4.06200       -7.98300
H          3.04500       -2.48300       -9.69300
H          4.70300       -2.67800      -11.34400
H          5.35300       -4.06500      -10.49100
H          5.18100       -1.25800       -9.41100
H          6.63900       -2.06300       -9.94600
H          3.26000       -5.21700      -10.70800
H          2.62600       -3.84800      -11.59000
H          1.78900       -4.44000      -10.17400
