71
4csv_imatinib_model_47_chainB_pH74.pdb
C         -8.94100       -7.65300       -5.25200
C         -8.00900       -7.59200       -4.05500
C         -7.50700       -8.74400       -3.50200
C         -6.65700       -8.69200       -2.40900
C         -6.30500       -7.48500       -1.83000
C         -6.80700       -6.32300       -2.37200
C         -7.66100       -6.34500       -3.48000
N         -8.18000       -5.15700       -3.98300
C         -7.67100       -4.46600       -5.05100
N         -6.55900       -4.94700       -5.63600
C         -6.09300       -4.24200       -6.72000
C         -6.74800       -3.07700       -7.16800
C         -7.89700       -2.65600       -6.50900
N         -8.35200       -3.36200       -5.44400
C         -8.66200       -1.45400       -6.90800
C         -8.26700       -0.64100       -7.96400
C         -9.01000        0.46900       -8.29900
C        -10.14600        0.76700       -7.57200
N        -10.54600        0.00200       -6.55600
C         -9.81700       -1.09900       -6.22400
N         -5.46600       -7.54700       -0.69400
C         -5.14100       -6.52600        0.15700
O         -5.46700       -5.38800       -0.07200
C         -4.35800       -6.85200        1.38300
C         -4.11100       -5.86000        2.34300
C         -3.39200       -6.13500        3.50200
C         -2.90500       -7.41200        3.74100
C         -3.15400       -8.40200        2.79300
C         -3.87400       -8.12000        1.63300
C         -2.13000       -7.70900        4.98900
N         -0.87400       -8.38200        4.73100
C          0.02400       -7.51500        3.96500
C          1.33000       -8.23300        3.66300
N          1.98600       -8.65800        4.91400
C          1.09300       -9.50400        5.69800
C         -0.22600       -8.77100        5.99000
C          3.22200       -9.38600        4.60900
H         -9.08400       -8.67300       -5.54100
H         -8.51100       -7.10800       -6.06700
H         -9.88500       -7.22100       -4.99200
H         -7.76500       -9.65800       -3.90500
H         -6.27900       -9.57000       -2.01900
H         -6.54800       -5.41700       -1.95200
H         -8.97400       -4.78400       -3.53700
H         -5.08900       -3.95500       -6.48700
H         -6.25100       -4.92500       -7.52900
H         -6.38000       -2.54500       -7.97200
H         -7.41400       -0.87000       -8.49900
H         -8.72100        1.07200       -9.08500
H        -10.69900        1.60200       -7.82100
H        -10.13300       -1.68900       -5.43800
H         -5.07000       -8.42500       -0.49200
H         -4.47000       -4.90500        2.18600
H         -3.22000       -5.38400        4.18900
H         -2.80000       -9.35800        2.95200
H         -4.04800       -8.87300        0.94900
H         -2.72700       -8.33300        5.62000
H         -1.90100       -6.77200        5.45300
H         -1.07200       -9.22200        4.18700
H         -0.44900       -7.24300        3.04500
H          0.23600       -6.64000        4.54300
H          1.98100       -7.57100        3.13100
H          1.12000       -9.09900        3.07000
H          2.21200       -7.82700        5.46100
H          1.56800       -9.75500        6.62300
H          0.87900      -10.39100        5.14000
H         -0.87700       -9.41900        6.53800
H         -0.02000       -7.89200        6.56500
H          2.99000      -10.25900        4.03500
H          3.70000       -9.67600        5.52200
H          3.87900       -8.75500        4.04800
