71
4csv_imatinib_model_16_chainB_pH74.pdb
C         -2.51000      -13.06200       -3.93300
C         -1.61000      -11.87000       -4.20600
C         -1.14400      -11.62200       -5.47700
C         -0.31900      -10.53400       -5.73200
C          0.07600       -9.68400       -4.71100
C         -0.38400       -9.92200       -3.43300
C         -1.22200      -11.00600       -3.15300
N         -1.63600      -11.23800       -1.84600
C         -2.85100      -10.85300       -1.32800
N         -3.69900      -10.17600       -2.12500
C         -4.91700       -9.83600       -1.57500
C         -5.22700      -10.17600       -0.24300
C         -4.28900      -10.88400        0.50500
N         -3.09700      -11.21500       -0.04900
C         -4.51300      -11.30300        1.90600
C         -5.69200      -11.01300        2.59200
C         -5.85100      -11.42300        3.89900
C         -4.83100      -12.11900        4.52100
N         -3.69400      -12.40600        3.88700
C         -3.53300      -12.00700        2.59800
N          0.95100       -8.63500       -5.05700
C          1.61100       -7.79400       -4.19700
O          1.40500       -7.82000       -3.01200
C          2.59500       -6.83100       -4.76600
C          3.33900       -6.00200       -3.90200
C          4.26600       -5.09300       -4.39700
C          4.49200       -4.99400       -5.76600
C          3.76400       -5.82000       -6.61900
C          2.83200       -6.72300       -6.11800
C          5.48700       -4.01300       -6.30000
N          4.96700       -3.24300       -7.40500
C          3.84800       -2.40200       -6.96900
C          3.27300       -1.61700       -8.14100
N          4.32100       -0.78200       -8.76400
C          5.45100       -1.61300       -9.18600
C          6.01900       -2.40500       -7.99600
C          3.76700       -0.06600       -9.92300
H         -2.69000      -13.59000       -4.84600
H         -3.44000      -12.72100       -3.52900
H         -2.03400      -13.71500       -3.23200
H         -1.41100      -12.25200       -6.25000
H          0.00500      -10.35600       -6.69600
H         -0.10400       -9.28800       -2.66800
H         -1.01400      -11.71200       -1.24800
H         -5.66700      -10.29100       -2.18800
H         -4.87300       -8.76700       -1.54300
H         -6.13300       -9.90500        0.17100
H         -6.44700      -10.49100        2.12100
H         -6.72300      -11.21200        4.40800
H         -4.95300      -12.42400        5.49900
H         -2.65000      -12.23500        2.11400
H          1.10500       -8.49000       -6.01800
H          3.19200       -6.07200       -2.88300
H          4.79000       -4.48800       -3.74500
H          3.91800       -5.76100       -7.63800
H          2.30800       -7.32400       -6.77300
H          5.76300       -3.34200       -5.51400
H          6.32900       -4.56700       -6.65800
H          4.63200       -3.89700       -8.11200
H          3.08300       -3.02400       -6.55400
H          4.20400       -1.71000       -6.23500
H          2.88800       -2.30100       -8.86800
H          2.49000       -0.98200       -7.78300
H          4.65100       -0.10400       -8.07700
H          6.21800       -0.98500       -9.58800
H          5.11100       -2.30500       -9.92800
H          6.38500       -1.72200       -7.25800
H          6.81700       -3.03000       -8.33800
H          3.41900       -0.77400      -10.64700
H          4.52700        0.54700      -10.36000
H          2.95100        0.54900       -9.60500
