71
4csv_imatinib_model_18_chainB_pH74.pdb
C          3.42600      -12.08100        4.08900
C          3.12400      -10.68000        4.59300
C          3.78200      -10.17500        5.68100
C          3.50700       -8.90000        6.14500
C          2.55000       -8.11000        5.54000
C          1.88100       -8.60500        4.44600
C          2.14600       -9.88700        3.96200
N          1.42700      -10.38200        2.89100
C          1.79000      -10.23900        1.58300
N          2.88800       -9.51700        1.30900
C          3.23100       -9.42300       -0.01700
C          2.45400      -10.03600       -1.01300
C          1.33800      -10.76500       -0.63200
N          1.01100      -10.86200        0.67700
C          0.46100      -11.45500       -1.59700
C          0.71500      -11.45400       -2.96200
C         -0.13500      -12.10500       -3.82400
C         -1.24300      -12.74700       -3.31800
N         -1.50900      -12.76200       -2.01600
C         -0.67300      -12.12300       -1.16100
N          2.31100       -6.85200        6.11700
C          1.30600       -5.97900        5.81300
O          0.57000       -6.17000        4.88100
C          1.14200       -4.77100        6.66400
C          0.04800       -3.91700        6.45100
C         -0.14000       -2.78600        7.23300
C          0.75000       -2.48200        8.25500
C          1.82700       -3.33300        8.47000
C          2.01200       -4.46300        7.68100
C          0.54900       -1.26800        9.09300
N          1.72200       -0.42500        9.13800
C          2.02000        0.11800        7.81200
C          3.26300        0.99100        7.85300
N          3.09100        2.08500        8.82300
C          2.77600        1.55200       10.14600
C          1.52500        0.66700       10.09300
C          4.30600        2.90100        8.88300
H          2.81500      -12.29300        3.23700
H          3.21800      -12.79100        4.86200
H          4.45800      -12.14600        3.81300
H          4.49100      -10.75100        6.16100
H          4.02700       -8.53300        6.95800
H          1.17300       -8.02000        3.97600
H          0.59500      -10.87200        3.08500
H          3.25600       -8.37900       -0.25100
H          4.14600       -9.97500       -0.06200
H          2.70900       -9.94600       -2.00900
H          1.54500      -10.96300       -3.33100
H          0.05500      -12.11200       -4.83800
H         -1.88400      -13.22900       -3.96700
H         -0.88800      -12.13400       -0.15200
H          2.93900       -6.56800        6.82000
H         -0.62700       -4.13400        5.70100
H         -0.94600       -2.16700        7.05400
H          2.49900       -3.12400        9.22500
H          2.81800       -5.08200        7.86300
H          0.30900       -1.57500       10.08900
H         -0.24400       -0.69800        8.65500
H          2.51300       -0.99300        9.44100
H          2.18200       -0.69100        7.13000
H          1.19200        0.71500        7.49200
H          3.43500        1.40500        6.88200
H          4.09800        0.39200        8.15100
H          2.31400        2.67100        8.51700
H          2.60200        2.36500       10.81900
H          3.60100        0.96000       10.48200
H          1.33900        0.25900       11.06400
H          0.69000        1.25900        9.78100
H          5.12700        2.29500        9.20300
H          4.16300        3.70300        9.57700
H          4.51500        3.30100        7.91300
