37
4csv_imatinib_model_31_chainB.pdb
C         -4.78400       -3.88100       -8.99600
C         -5.10000       -3.35200       -7.60600
C         -6.25000       -3.73100       -6.95900
C         -6.54500       -3.25000       -5.69000
C         -5.69900       -2.35600       -5.04800
C         -4.54500       -1.96500       -5.69000
C         -4.22500       -2.44600       -6.96500
N         -3.07200       -2.01700       -7.60200
C         -1.86700       -2.65800       -7.51000
N         -1.77700       -3.72700       -6.69600
C         -0.55400       -4.35700       -6.65500
C          0.53300       -3.88100       -7.41200
C          0.34000       -2.77400       -8.22900
N         -0.87000       -2.16300       -8.26900
C          1.40500       -2.19600       -9.07100
C          2.67500       -2.75400       -9.14900
C          3.63400       -2.17400       -9.94600
C          3.31900       -1.03700      -10.65600
N          2.10500       -0.48600      -10.60100
C          1.15600       -1.05100       -9.81600
N         -6.10700       -1.89200       -3.77800
C         -5.52300       -0.90100       -3.03300
O         -4.49000       -0.38300       -3.37400
C         -6.20000       -0.47800       -1.77500
C         -5.67500        0.58500       -1.02000
C         -6.28900        1.00600        0.15600
C         -7.45000        0.38500        0.60200
C         -7.97400       -0.66300       -0.14800
C         -7.35200       -1.08300       -1.32200
C         -8.11500        0.83300        1.86200
N         -8.41900       -0.26500        2.75100
C         -7.18500       -0.87000        3.26700
C         -7.50400       -2.03800        4.19400
N         -8.36200       -1.58300        5.30600
C         -9.59300       -0.97900        4.79600
C         -9.25800        0.19600        3.86100
C         -8.69200       -2.71300        6.18500
