71
4csv_imatinib_model_14_chainB_pH74.pdb
C         -4.27000       14.53000        0.90300
C         -3.00500       13.68900        0.94400
C         -1.89400       14.12700        1.61800
C         -0.74000       13.36100        1.65500
C         -0.66600       12.14300        1.00000
C         -1.77000       11.69800        0.31900
C         -2.94600       12.44900        0.27000
N         -4.03000       11.99100       -0.45300
C         -5.06100       11.28000        0.08300
N         -4.99300       10.96000        1.38800
C         -6.06300       10.26600        1.89000
C         -7.14600        9.90600        1.07100
C         -7.12700       10.29200       -0.26400
N         -6.07300       10.98100       -0.75200
C         -8.21100        9.98000       -1.20700
C         -9.34100        9.27400       -0.82000
C        -10.32600        9.00200       -1.73500
C        -10.17600        9.43300       -3.03400
N         -9.10100       10.11700       -3.42800
C         -8.12700       10.38800       -2.52900
N          0.56300       11.45700        1.06000
C          0.91300       10.32100        0.38500
O          0.11000        9.71500       -0.27300
C          2.31900        9.84100        0.48100
C          3.25500       10.43100        1.29300
C          4.56200        9.95700        1.34200
C          4.96900        8.87600        0.57700
C          4.03400        8.26400       -0.25700
C          2.73100        8.74800       -0.30500
C          6.37000        8.35800        0.62600
N          6.85300        8.16300        1.96500
C          6.10100        7.09900        2.63900
C          6.59100        6.92400        4.06800
N          8.03500        6.61800        4.08100
C          8.78900        7.66300        3.38900
C          8.27900        7.83400        1.95100
C          8.50500        6.49100        5.46300
H         -5.01900       14.02100        0.33300
H         -4.05600       15.47400        0.44800
H         -4.62600       14.68700        1.90000
H         -1.91800       15.03800        2.10300
H          0.07900       13.70400        2.18000
H         -1.73100       10.78900       -0.16800
H         -4.05900       12.19100       -1.41700
H         -5.67200        9.35500        2.29300
H         -6.50400       10.97200        2.56300
H         -7.93900        9.36600        1.45200
H         -9.44000        8.95400        0.15600
H        -11.17000        8.48000       -1.45300
H        -10.91600        9.22100       -3.72200
H         -7.29500       10.91500       -2.83700
H          1.24700       11.83900        1.65600
H          2.98500       11.23900        1.87600
H          5.24400       10.42100        1.96200
H          4.30800        7.45500       -0.83600
H          2.04900        8.29400       -0.93300
H          7.01000        9.05900        0.13200
H          6.37400        7.40300        0.14400
H          6.71900        9.03300        2.48000
H          6.23500        6.18100        2.10600
H          5.06500        7.36600        2.65900
H          6.05600        6.12000        4.52900
H          6.42300        7.83300        4.60700
H          8.18500        5.73500        3.59300
H          8.67400        8.58700        3.91500
H          9.82100        7.38100        3.35800
H          8.82100        8.62400        1.47400
H          8.42500        6.92000        1.41400
H          8.34900        7.41500        5.97900
H          9.54800        6.25300        5.46500
H          7.96100        5.71200        5.95500
