71
4csv_imatinib_model_42_chainB_pH74.pdb
C          3.85100       -5.54900       -9.68100
C          3.39500       -5.67600       -8.23600
C          4.03100       -6.54000       -7.37600
C          3.61500       -6.66000       -6.05400
C          2.53800       -5.93000       -5.57000
C          1.89000       -5.06500       -6.42900
C          2.29600       -4.92200       -7.76100
N          1.60100       -4.06800       -8.60600
C          1.94500       -2.76600       -8.85100
N          3.01800       -2.26200       -8.21300
C          3.34100       -0.95300       -8.50900
C          2.56600       -0.20200       -9.41600
C          1.47500       -0.81200      -10.03100
N          1.17100       -2.10000       -9.73600
C          0.60000       -0.12400      -11.00500
C          0.79600        1.20400      -11.37300
C         -0.04800        1.80200      -12.28400
C         -1.08800        1.07100      -12.82100
N         -1.29700       -0.20400      -12.48700
C         -0.46800       -0.80000      -11.58900
N          2.16500       -6.15400       -4.22300
C          1.06000       -5.66200       -3.56900
O          0.33100       -4.85100       -4.08500
C          0.77900       -6.15400       -2.18800
C         -0.43200       -5.81300       -1.55500
C         -0.72900       -6.26400       -0.27000
C          0.17000       -7.07900        0.41500
C          1.36500       -7.42300       -0.21300
C          1.65900       -6.96600       -1.50000
C         -0.14600       -7.56600        1.79300
N          0.91200       -7.29800        2.74700
C          1.11300       -5.85500        2.91800
C          2.24400       -5.58100        3.90200
N          1.95300       -6.21300        5.20700
C          1.73400       -7.64800        5.04800
C          0.59500       -7.91400        4.04400
C          3.06200       -5.97600        6.14200
H          3.23800       -4.83300      -10.18700
H          3.76500       -6.49900      -10.16700
H          4.87100       -5.22600       -9.70600
H          4.82500       -7.10500       -7.71500
H          4.11600       -7.30300       -5.42200
H          1.09000       -4.51300       -6.08200
H          0.80400       -4.42400       -9.06100
H          3.32700       -0.41900       -7.58200
H          4.27500       -1.05100       -9.02200
H          2.80300        0.78100       -9.62100
H          1.57500        1.74200      -10.96300
H          0.09600        2.78500      -12.56100
H         -1.72100        1.52300      -13.49900
H         -0.63600       -1.78500      -11.33200
H          2.76500       -6.72800       -3.69400
H         -1.11300       -5.21800       -2.05200
H         -1.61900       -5.99300        0.17600
H          2.04300       -8.02500        0.28000
H          2.54900       -7.24000       -1.94400
H         -0.30800       -8.62300        1.75200
H         -1.01600       -7.04000        2.12600
H          1.77500       -7.70300        2.38400
H          0.21000       -5.41600        3.28900
H          1.37100       -5.42900        1.97100
H          2.34700       -4.52400        4.03700
H          3.15200       -5.99100        3.51200
H          1.10200       -5.79500        5.58400
H          2.63300       -8.10300        4.68900
H          1.46300       -8.06300        5.99600
H          0.47600       -8.97000        3.91500
H         -0.31200       -7.48900        4.42200
H          3.95700       -6.41300        5.75100
H          2.83200       -6.42000        7.08800
H          3.20400       -4.92300        6.26700
