71
4csv_imatinib_model_46_chainB_pH74.pdb
C         -4.95300       -8.87900       -9.67000
C         -4.56300       -8.80100       -8.19900
C         -4.05500       -9.90000       -7.54300
C         -3.70000       -9.83000       -6.19700
C         -3.86900       -8.65900       -5.46400
C         -4.38100       -7.55300       -6.11800
C         -4.73700       -7.59700       -7.47900
N         -5.28200       -6.47500       -8.10300
C         -4.54800       -5.55100       -8.81400
N         -3.21100       -5.71800       -8.86000
C         -2.50900       -4.78700       -9.59900
C         -3.16500       -3.72100      -10.24700
C         -4.55000       -3.63200      -10.15300
N         -5.23600       -4.55700       -9.42800
C         -5.33300       -2.56100      -10.81000
C         -4.72900       -1.54700      -11.55200
C         -5.50100       -0.56900      -12.14200
C         -6.86700       -0.60500      -11.98300
N         -7.47000       -1.56900      -11.27800
C         -6.71500       -2.53600      -10.69600
N         -3.52700       -8.69900       -4.08000
C         -3.71000       -7.70800       -3.13200
O         -4.08200       -6.60600       -3.44800
C         -3.43900       -8.02600       -1.69100
C         -3.87000       -7.14100       -0.67900
C         -3.65000       -7.41100        0.67600
C         -2.99900       -8.57900        1.07100
C         -2.57600       -9.46200        0.07300
C         -2.79800       -9.18400       -1.28600
C         -2.77700       -8.87600        2.53000
N         -1.39800       -9.17200        2.87000
C         -0.54100       -7.99400        2.69800
C          0.91000       -8.32800        3.03600
N          1.01200       -8.81800        4.42300
C          0.15100       -9.97800        4.62000
C         -1.30700       -9.63800        4.26200
C          2.40700       -9.16100        4.73700
H         -4.75000       -9.86200      -10.04100
H         -4.38600       -8.16300      -10.22800
H         -5.99700       -8.66700       -9.77400
H         -3.93500      -10.78800       -8.05500
H         -3.30400      -10.66300       -5.73500
H         -4.50500       -6.67200       -5.59400
H         -6.25400       -6.33400       -8.03100
H         -1.79800       -4.34500       -8.93200
H         -2.14500       -5.36900      -10.42000
H         -2.62800       -3.02000      -10.78100
H         -3.70300       -1.52800      -11.66000
H         -5.05900        0.18100      -12.69600
H         -7.44300        0.13200      -12.42000
H         -7.18500       -3.27600      -10.15100
H         -3.11100       -9.53200       -3.76100
H         -4.36000       -6.27300       -0.94600
H         -3.97300       -6.73900        1.39000
H         -2.09200      -10.33400        0.33900
H         -2.47600       -9.85800       -1.99800
H         -3.37800       -9.72000        2.79600
H         -3.04500       -7.99200        3.07000
H         -1.07500       -9.90500        2.23800
H         -0.88200       -7.21400        3.34600
H         -0.59200       -7.67800        1.67700
H          1.50900       -7.44800        2.92700
H          1.25600       -9.09100        2.37100
H          0.70500       -8.07700        5.05300
H          0.48900      -10.77700        3.99400
H          0.19500      -10.26900        5.64900
H         -1.91200      -10.51200        4.38100
H         -1.65200       -8.86100        4.91100
H          2.73900       -9.93800        4.08100
H          2.47200       -9.49700        5.75100
H          3.02500       -8.29700        4.60800
