37
4csv_imatinib_model_33_chainB.pdb
C         11.24000       -8.33600        1.99900
C         10.55600       -7.56800        0.88100
C         10.72800       -7.94300       -0.42400
C         10.10700       -7.24200       -1.44500
C          9.31600       -6.13700       -1.17600
C          9.14200       -5.75100        0.12600
C          9.75100       -6.44400        1.16800
N          9.58100       -6.00700        2.46400
C          8.62200       -6.47700        3.31500
N          7.76400       -7.40100        2.85000
C          6.83400       -7.86100        3.74700
C          6.79000       -7.36800        5.06400
C          7.72600       -6.41500        5.44900
N          8.63900       -5.97100        4.56200
C          7.78000       -5.83700        6.80200
C          6.90300       -6.22300        7.80600
C          6.99000       -5.65300        9.05400
C          7.94800       -4.69500        9.29000
N          8.80600       -4.30900        8.34100
C          8.72400       -4.86900        7.11000
N          8.76200       -5.47100       -2.28200
C          8.06400       -4.30000       -2.27500
O          7.74700       -3.74900       -1.25100
C          7.69700       -3.72400       -3.59100
C          7.88500       -4.40000       -4.76700
C          7.54400       -3.82800       -5.98000
C          7.00700       -2.55400       -6.04800
C          6.81000       -1.84700       -4.86100
C          7.16000       -2.42700       -3.65100
C          6.63800       -1.93100       -7.34900
N          5.83900       -2.79300       -8.17400
C          4.52800       -3.03000       -7.55800
C          3.69100       -3.94800       -8.42700
N          3.53500       -3.37400       -9.77500
C          4.84000       -3.13200      -10.38500
C          5.67600       -2.20200       -9.50100
C          2.74900       -4.28100      -10.61900
