37
4csv_imatinib_model_44_chainB.pdb
C         13.07400        4.51900        2.59300
C         12.35100        3.18300        2.47000
C         12.87100        2.05000        3.04800
C         12.21500        0.82600        2.93800
C         11.03200        0.70900        2.21800
C         10.50700        1.84000        1.63500
C         11.14500        3.08700        1.74000
N         10.61000        4.20700        1.11000
C          9.78000        5.12000        1.71100
N          9.41900        4.89800        2.99300
C          8.60200        5.84900        3.56400
C          8.16600        6.97100        2.83300
C          8.60000        7.12400        1.51800
N          9.40900        6.18700        0.96500
C          8.21400        8.27300        0.66700
C          7.36400        9.28100        1.11600
C          7.03000       10.32800        0.28200
C          7.53900       10.36000       -1.00300
N          8.35900        9.40600       -1.45400
C          8.69400        8.37300       -0.63200
N         10.46900       -0.58700        2.11800
C          9.40900       -0.97800        1.33400
O          8.75100       -0.17700        0.71900
C          9.08200       -2.43000        1.25500
C          8.10800       -2.87800        0.34900
C          7.78300       -4.22300        0.23900
C          8.43200       -5.17100        1.02500
C          9.40500       -4.73200        1.92400
C          9.72200       -3.38000        2.03100
C          8.09100       -6.62500        0.90200
N          7.74600       -7.23600        2.17100
C          6.51200       -6.66100        2.70900
C          6.16700       -7.28900        4.05300
N          6.01900       -8.75100        3.91600
C          7.23800       -9.33800        3.36200
C          7.58100       -8.68900        2.00700
C          5.72500       -9.35600        5.22300
