71
4csv_imatinib_model_48_chainB_pH74.pdb
C         -6.94700       -2.39300        9.17300
C         -6.99500       -1.62800        7.85900
C         -7.93400       -0.65400        7.65000
C         -7.97900        0.04200        6.45000
C         -7.09200       -0.23800        5.42000
C         -6.15000       -1.21700        5.62300
C         -6.08400       -1.92600        6.82400
N         -5.14700       -2.92900        6.98400
C         -3.92400       -2.74700        7.55700
N         -3.58100       -1.50000        7.92800
C         -2.35100       -1.36500        8.52400
C         -1.51100       -2.47800        8.70600
C         -1.96000       -3.72700        8.29700
N         -3.17500       -3.85300        7.71800
C         -1.17000       -4.95800        8.45400
C          0.08900       -4.95600        9.03400
C          0.79300       -6.13100        9.15900
C          0.23500       -7.30000        8.69800
N         -0.97700       -7.32700        8.13800
C         -1.67400       -6.17300        8.01500
N         -7.25000        0.49800        4.22500
C         -6.60200        0.31200        3.03400
O         -5.69200       -0.47400        2.92300
C         -7.05700        1.11500        1.86400
C         -7.96700        2.14000        1.97500
C         -8.38300        2.85600        0.85400
C         -7.89300        2.56000       -0.41100
C         -6.96900        1.52300       -0.54000
C         -6.56400        0.81100        0.58300
C         -8.34100        3.32000       -1.61800
N         -8.15800        4.74800       -1.49600
C         -6.73300        5.08400       -1.43600
C         -6.54800        6.58700       -1.28400
N         -7.19200        7.29600       -2.40600
C         -8.61000        6.95200       -2.48900
C         -8.78300        5.43500       -2.63200
C         -7.04200        8.74300       -2.23400
H         -6.15000       -3.10600        9.14200
H         -7.87600       -2.90300        9.32300
H         -6.78200       -1.70800        9.97900
H         -8.61600       -0.43500        8.39300
H         -8.68600        0.78200        6.32100
H         -5.47700       -1.43300        4.87200
H         -5.37700       -3.83100        6.66400
H         -2.52700       -0.95400        9.49600
H         -1.80900       -0.77300        7.81600
H         -0.57900       -2.36900        9.13500
H          0.49900       -4.07100        9.37300
H          1.72900       -6.13500        9.59400
H          0.76700       -8.18000        8.78700
H         -2.61000       -6.19800        7.58100
H         -7.90500        1.23300        4.25200
H         -8.34800        2.38300        2.90300
H         -9.06800        3.62000        0.96600
H         -6.58600        1.28500       -1.46800
H         -5.88500        0.04100        0.47400
H         -7.78100        2.97700       -2.46200
H         -9.39000        3.14400       -1.73100
H         -8.60200        5.05600       -0.63100
H         -6.25600        4.75900       -2.33700
H         -6.29600        4.59300       -0.59100
H         -6.99100        6.90600       -0.36400
H         -5.50200        6.81200       -1.28400
H         -6.73700        7.00900       -3.27300
H         -9.10600        7.28100       -1.60000
H         -9.03500        7.43300       -3.34500
H         -8.32000        5.11000       -3.54000
H         -9.82700        5.20100       -2.65200
H         -7.51900        9.04500       -1.32500
H         -7.49500        9.24900       -3.06000
H         -6.00200        8.99100       -2.19100
