71
4csv_imatinib_model_11_chainB_pH74.pdb
C         -4.63800       -8.79400        8.13800
C         -4.04400       -8.56400        6.75600
C         -4.40500       -9.35700        5.69800
C         -3.86200       -9.15000        4.43700
C         -2.92500       -8.15400        4.21400
C         -2.55400       -7.35600        5.26900
C         -3.09200       -7.54300        6.54500
N         -2.67200       -6.74800        7.59500
C         -3.31800       -5.61600        8.00400
N         -4.39100       -5.20600        7.29900
C         -5.02400       -4.07800        7.76800
C         -4.55000       -3.40100        8.90500
C         -3.43800       -3.91000        9.56600
N         -2.82600       -5.02100        9.10300
C         -2.86300       -3.29100       10.77200
C         -3.40900       -2.15600       11.35200
C         -2.83300       -1.61500       12.47800
C         -1.70900       -2.20700       13.01100
N         -1.16700       -3.30200       12.47100
C         -1.73500       -3.83900       11.36400
N         -2.40500       -8.05000        2.90500
C         -1.35900       -7.27000        2.49200
O         -0.83500       -6.47500        3.23300
C         -0.88200       -7.41800        1.08900
C         -1.50100       -8.23100        0.16900
C         -1.01300       -8.34800       -1.12800
C          0.11500       -7.65000       -1.54300
C          0.75800       -6.82300       -0.62200
C          0.26800       -6.71500        0.67600
C          0.64600       -7.76400       -2.93200
N         -0.36800       -7.60900       -3.94800
C         -0.93800       -6.25800       -3.92100
C         -2.00700       -6.10700       -4.99600
N         -1.44100       -6.40700       -6.32700
C         -0.86600       -7.74700       -6.35400
C          0.20900       -7.89200       -5.26700
C         -2.47900       -6.28500       -7.35700
H         -5.33500       -9.60500        8.09600
H         -5.14200       -7.90700        8.46200
H         -3.85500       -9.03100        8.82800
H         -5.08900      -10.11700        5.84000
H         -4.16200       -9.74900        3.65200
H         -1.86400       -6.60400        5.11600
H         -1.85700       -7.01400        8.07800
H         -6.03300       -4.36200        7.98200
H         -4.85300       -3.37000        6.98400
H         -5.01700       -2.54500        9.24200
H         -4.24700       -1.71700       10.93900
H         -3.23900       -0.77500       12.91900
H         -1.27400       -1.79300       13.85000
H         -1.31400       -4.68400       10.94800
H         -2.84300       -8.59800        2.21400
H         -2.34100       -8.76300        0.44500
H         -1.49900       -8.96600       -1.79700
H          1.59700       -6.29100       -0.90300
H          0.75700       -6.10700        1.35100
H          1.38800       -7.00600       -3.07500
H          1.04900       -8.75000       -3.03600
H         -1.12100       -8.27100       -3.76000
H         -1.37600       -6.08000       -2.96100
H         -0.15800       -5.55000       -4.10800
H         -2.81000       -6.78400       -4.79300
H         -2.36700       -5.09900       -4.99000
H         -0.70000       -5.73300       -6.51900
H         -0.42400       -7.92100       -7.31300
H         -1.64200       -8.46100       -6.17100
H          1.00400       -7.20300       -5.46100
H          0.58600       -8.89300       -5.27800
H         -3.26000       -6.98900       -7.16100
H         -2.05300       -6.48300       -8.31800
H         -2.88100       -5.29300       -7.34300
