37
4csv_imatinib_model_38_chainB.pdb
C         11.53000       -0.58300        3.82000
C         10.26400       -0.08600        4.50000
C         10.31800        0.51600        5.73200
C          9.16300        0.96900        6.35800
C          7.91700        0.80100        5.77200
C          7.85300        0.19900        4.53400
C          9.00600       -0.25700        3.88200
N          8.91000       -0.89300        2.65300
C          9.02300       -0.25200        1.45100
N          9.17900        1.08500        1.46700
C          9.30300        1.68900        0.23800
C          9.25100        0.94000       -0.95100
C          9.10000       -0.43800       -0.86700
N          8.98500       -1.02800        0.34700
C          9.04500       -1.31900       -2.05000
C          9.09500       -0.81800       -3.34600
C          9.03200       -1.67600       -4.41900
C          8.91100       -3.03100       -4.19200
N          8.86200       -3.53300       -2.95700
C          8.92700       -2.68900       -1.89500
N          6.79300        1.24300        6.51600
C          5.46600        1.02300        6.23800
O          5.12100        0.51500        5.20100
C          4.44700        1.42200        7.25300
C          3.09200        1.10200        7.04900
C          2.11700        1.44400        7.98000
C          2.46300        2.10100        9.15500
C          3.80500        2.41700        9.36600
C          4.78000        2.07700        8.42400
C          1.41500        2.45300       10.16600
N          1.40600        3.85200       10.51900
C          1.01900        4.67900        9.37500
C          1.02900        6.15100        9.75300
N          0.11600        6.39500       10.88600
C          0.47500        5.56200       12.02700
C          0.47600        4.08100       11.63200
C          0.15700        7.81100       11.27100
