71
4csv_imatinib_model_22_chainB_pH74.pdb
C         -4.05700       12.62900       -2.91400
C         -4.36700       11.43900       -2.01700
C         -5.62100       11.27200       -1.48500
C         -5.90300       10.19100       -0.66100
C         -4.92500        9.26200       -0.33300
C         -3.66400        9.42000       -0.86300
C         -3.35900       10.49900       -1.69900
N         -2.07300       10.66100       -2.18100
C         -1.62800       10.17800       -3.38300
N         -2.48700        9.47100       -4.14200
C         -2.00100        9.02800       -5.35300
C         -0.68000        9.29600       -5.74600
C          0.12900       10.04200       -4.89800
N         -0.35700       10.48100       -3.71200
C          1.52400       10.39500       -5.21600
C          2.13900        9.99100       -6.39700
C          3.44500       10.34100       -6.65100
C          4.13400       11.09000       -5.71800
N          3.56400       11.48900       -4.58000
C          2.27600       11.14900       -4.32800
N         -5.30100        8.22800        0.55200
C         -4.49000        7.28300        1.12700
O         -3.32900        7.17500        0.81400
C         -5.07500        6.38200        2.16000
C         -6.41400        6.36300        2.45800
C         -6.91600        5.52100        3.44300
C         -6.08100        4.67100        4.16000
C         -4.71500        4.67900        3.87200
C         -4.22200        5.52500        2.89100
C         -6.61100        3.76500        5.21900
N         -7.73300        2.98900        4.77500
C         -7.32900        2.05200        3.72200
C         -8.52000        1.24300        3.24200
N         -9.13000        0.51300        4.37000
C         -9.51800        1.43900        5.43500
C         -8.30800        2.25500        5.90500
C        -10.30400       -0.23500        3.90800
H         -3.03500       12.58300       -3.22700
H         -4.22400       13.53700       -2.37300
H         -4.69400       12.60300       -3.77300
H         -6.36200       11.95700       -1.70000
H         -6.85700       10.07600       -0.28500
H         -2.93000        8.73000       -0.63900
H         -1.43300       11.15800       -1.62200
H         -2.10800        7.96300       -5.35200
H         -2.57400        9.59400       -6.05700
H         -0.31700        8.94600       -6.64700
H          1.61400        9.42700       -7.08400
H          3.90400       10.04700       -7.52800
H          5.11500       11.34800       -5.90600
H          1.84100       11.46200       -3.44600
H         -6.25700        8.18000        0.78300
H         -7.05800        6.98300        1.94300
H         -7.92800        5.52700        3.64600
H         -4.07400        4.05700        4.38800
H         -3.21000        5.52900        2.69000
H         -6.91500        4.35800        6.05600
H         -5.83000        3.08200        5.48000
H         -8.43500        3.62200        4.39200
H         -6.92200        2.60200        2.89900
H         -6.59400        1.38300        4.11900
H         -8.19500        0.54200        2.50200
H         -9.24700        1.90700        2.82300
H         -8.44000       -0.14000        4.74200
H         -9.90900        0.88200        6.26100
H        -10.26100        2.10900        5.05700
H         -8.61900        2.94900        6.65800
H         -7.57000        1.59200        6.30700
H        -11.03000        0.44700        3.51700
H        -10.72800       -0.77600        4.72800
H        -10.01000       -0.92200        3.14200
