71
4csv_imatinib_model_25_chainB_pH74.pdb
C        -10.10100       -6.60100       -3.30700
C         -9.69300       -5.22700       -2.79400
C        -10.53100       -4.51500       -1.97200
C        -10.16600       -3.26100       -1.50500
C         -8.95600       -2.68100       -1.86800
C         -8.11200       -3.38600       -2.69700
C         -8.45300       -4.65300       -3.17400
N         -7.59400       -5.32200       -4.03600
C         -6.66200       -6.25100       -3.64700
N         -6.53300       -6.50800       -2.32900
C         -5.60300       -7.46700       -1.98800
C         -4.83100       -8.11600       -2.97500
C         -5.04200       -7.78900       -4.31200
N         -5.96500       -6.84900       -4.63800
C         -4.30200       -8.41600       -5.42900
C         -3.31000       -9.37100       -5.22400
C         -2.64600       -9.92300       -6.30100
C         -2.97300       -9.51300       -7.58000
N         -3.92200       -8.60100       -7.80200
C         -4.58200       -8.05300       -6.74300
N         -8.69300       -1.38600       -1.36600
C         -7.68100       -0.53600       -1.72300
O         -6.79800       -0.86700       -2.48300
C         -7.70700        0.83200       -1.12600
C         -8.55900        1.17500       -0.09700
C         -8.56600        2.46500        0.43300
C         -7.72000        3.45200       -0.05300
C         -6.84900        3.12400       -1.09800
C         -6.85200        1.83200       -1.62600
C         -7.72700        4.83800        0.50900
N         -7.60100        4.87700        1.95300
C         -6.27300        4.41100        2.37000
C         -6.13800        4.46600        3.88700
N         -6.37000        5.84200        4.37000
C         -7.69200        6.30900        3.96300
C         -7.82900        6.24800        2.43400
C         -6.25300        5.89300        5.83100
H         -9.32400       -6.99500       -3.92800
H        -11.00300       -6.51600       -3.87600
H        -10.26300       -7.25800       -2.47800
H        -11.44100       -4.91700       -1.69900
H        -10.80500       -2.74900       -0.87600
H         -7.20900       -2.96900       -2.97100
H         -7.65800       -5.11500       -4.99600
H         -4.91100       -6.99600       -1.32200
H         -6.21200       -8.26000       -1.60800
H         -4.12400       -8.81900       -2.71100
H         -3.07100       -9.66700       -4.26500
H         -1.91300      -10.63400       -6.15300
H         -2.47100       -9.92200       -8.38300
H         -5.31300       -7.34600       -6.92100
H         -9.31300       -1.05500       -0.67600
H         -9.20200        0.46500        0.28700
H         -9.21400        2.69100        1.20300
H         -6.20600        3.83600       -1.47800
H         -6.21100        1.60400       -2.40200
H         -8.64800        5.30900        0.23700
H         -6.87600        5.34600        0.10500
H         -8.30100        4.25600        2.35900
H         -5.52600        5.03600        1.92700
H         -6.14600        3.39800        2.04900
H         -5.15300        4.15500        4.16600
H         -6.86500        3.81500        4.32600
H         -5.66400        6.45200        3.95800
H         -8.43900        5.68700        4.41000
H         -7.81900        7.32200        4.28500
H         -8.81400        6.56000        2.15600
H         -7.10000        6.89600        1.99400
H         -6.99100        5.25500        6.27000
H         -6.40500        6.89800        6.16600
H         -5.27800        5.56300        6.12200
