37
4csv_imatinib_model_10_chainB.pdb
C         -5.00700       -7.09300        9.01200
C         -5.27900       -5.73000        8.39300
C         -5.99900       -4.78600        9.07800
C         -6.25000       -3.54300        8.51600
C         -5.79700       -3.22800        7.24000
C         -5.08000       -4.16900        6.54800
C         -4.81000       -5.42200        7.09500
N         -4.11300       -6.35700        6.35200
C         -2.75800       -6.52000        6.39400
N         -2.04700       -5.71200        7.20300
C         -0.68700       -5.93500        7.23200
C         -0.10200       -6.93900        6.44000
C         -0.92300       -7.72400        5.64000
N         -2.25900       -7.50400        5.62400
C         -0.41800       -8.81000        4.77700
C          0.93400       -9.12500        4.69400
C          1.35600      -10.14600        3.87200
C          0.42500      -10.84200        3.12800
N         -0.87900      -10.55900        3.19300
C         -1.30000       -9.55400        4.00400
N         -6.12900       -1.95200        6.73900
C         -5.94500       -1.49200        5.46200
O         -5.35100       -2.13200        4.63100
C         -6.49700       -0.15500        5.12500
C         -6.41500        0.32600        3.80800
C         -6.92900        1.56800        3.46600
C         -7.54500        2.36200        4.42700
C         -7.63300        1.88300        5.73200
C         -7.11300        0.63700        6.07100
C         -8.09600        3.69900        4.06500
N         -7.62500        4.74700        4.94600
C         -6.18300        4.94500        4.78500
C         -5.68500        6.04100        5.71200
N         -6.41500        7.29600        5.45300
C         -7.85100        7.10100        5.60900
C         -8.34600        5.99200        4.66800
C         -5.95000        8.34700        6.36100
