37
4csv_imatinib_model_47_chainB.pdb
C         -8.94100       -7.65300       -5.25200
C         -8.00900       -7.59200       -4.05500
C         -7.50700       -8.74400       -3.50200
C         -6.65700       -8.69200       -2.40900
C         -6.30500       -7.48500       -1.83000
C         -6.80700       -6.32300       -2.37200
C         -7.66100       -6.34500       -3.48000
N         -8.18000       -5.15700       -3.98300
C         -7.67100       -4.46600       -5.05100
N         -6.55900       -4.94700       -5.63600
C         -6.09300       -4.24200       -6.72000
C         -6.74800       -3.07700       -7.16800
C         -7.89700       -2.65600       -6.50900
N         -8.35200       -3.36200       -5.44400
C         -8.66200       -1.45400       -6.90800
C         -8.26700       -0.64100       -7.96400
C         -9.01000        0.46900       -8.29900
C        -10.14600        0.76700       -7.57200
N        -10.54600        0.00200       -6.55600
C         -9.81700       -1.09900       -6.22400
N         -5.46600       -7.54700       -0.69400
C         -5.14100       -6.52600        0.15700
O         -5.46700       -5.38800       -0.07200
C         -4.35800       -6.85200        1.38300
C         -4.11100       -5.86000        2.34300
C         -3.39200       -6.13500        3.50200
C         -2.90500       -7.41200        3.74100
C         -3.15400       -8.40200        2.79300
C         -3.87400       -8.12000        1.63300
C         -2.13000       -7.70900        4.98900
N         -0.87400       -8.38200        4.73100
C          0.02400       -7.51500        3.96500
C          1.33000       -8.23300        3.66300
N          1.98600       -8.65800        4.91400
C          1.09300       -9.50400        5.69800
C         -0.22600       -8.77100        5.99000
C          3.22200       -9.38600        4.60900
