37
4csv_imatinib_model_0_chainB.pdb
C         -7.82500       -7.12700       -7.56600
C         -7.69400       -5.90200       -6.67000
C         -8.80400       -5.29200       -6.14500
C         -8.68100       -4.17100       -5.33300
C         -7.44100       -3.61900       -5.04900
C         -6.32300       -4.22200       -5.57500
C         -6.42300       -5.35800       -6.38800
N         -5.28800       -5.92500       -6.92700
C         -4.59500       -6.95100       -6.34500
N         -5.00800       -7.39400       -5.14300
C         -4.29400       -8.43900       -4.61000
C         -3.19000       -8.98300       -5.28900
C         -2.84700       -8.46100       -6.53200
N         -3.56000       -7.43800       -7.05500
C         -1.71900       -8.96300       -7.33500
C         -0.90400       -9.99900       -6.89400
C          0.14200      -10.43000       -7.67500
C          0.37500       -9.81500       -8.89100
N         -0.39600       -8.82000       -9.33300
C         -1.43100       -8.39400       -8.56700
N         -7.42900       -2.45100       -4.25500
C         -6.36100       -1.63700       -3.97400
O         -5.24200       -1.93400       -4.30600
C         -6.62000       -0.36400       -3.24100
C         -7.85200       -0.03700       -2.72300
C         -8.05600        1.16900       -2.05500
C         -7.02700        2.08800       -1.88700
C         -5.77100        1.77700       -2.40900
C         -5.57500        0.57100       -3.07900
C         -7.23700        3.39000       -1.17500
N         -7.83000        3.23400        0.13700
C         -6.90500        2.54400        1.04400
C         -7.54200        2.35700        2.41600
N         -7.91900        3.66300        2.98600
C         -8.82700        4.36700        2.08600
C         -8.18400        4.54200        0.70100
C         -8.55600        3.47600        4.29600
