223
6y13_stapledHelix_conf27.pdb
C         -1.58200        3.24700        0.53000
C         -1.17000        2.79400       -0.86300
C         -1.46000        1.35300       -0.99300
C         -2.91700        1.09700       -1.11500
C         -3.72400        1.95400       -1.99800
C         -3.22900        3.36900       -2.19000
C         -1.82500        3.67000       -1.86600
C         -0.94800        3.66200       -3.11800
C         -3.99400        1.27500       -3.30900
C         -0.64000        0.57500       -1.99700
H         -1.30700        2.53200        1.31400
H         -2.69300        3.33400        0.51400
H         -1.21100        4.28100        0.70400
H         -3.00400        0.00300       -1.41800
H         -3.87700        4.01300       -1.51000
H         -0.98100        4.67500       -3.62300
H         -1.36700        2.98300       -3.90600
H         -0.78700        0.76900       -3.03300
O         -3.98800        2.32400       -4.30600
H          0.40400        0.64100       -1.64400
N         -5.11600        0.51600       -3.53000
C         -5.31700       -0.84700       -3.25900
C         -5.70000       -1.25100       -1.89000
O         -5.63500       -0.53700       -0.87600
C         -4.23300       -1.68500       -3.90900
C         -4.24400       -3.12400       -3.75600
N         -4.84400       -4.06500       -4.55500
C         -3.60000       -3.85900       -2.75200
C         -4.56700       -5.29300       -4.04900
N         -3.80600       -5.17300       -2.94400
H         -5.92600        0.97100       -3.97600
H         -6.24900       -1.14000       -3.87200
H         -3.23600       -1.25300       -3.67700
H         -4.40700       -1.50100       -5.02900
H         -3.03400       -3.43300       -1.94400
H         -4.87900       -6.25900       -4.42700
H         -3.41400       -5.90100       -2.31200
N         -6.20800       -2.56500       -1.63500
C         -6.69800       -3.05900       -0.36600
C         -8.26200       -3.03900       -0.49200
C         -8.76900       -1.66700       -0.76600
C        -10.30100       -1.65100       -0.89800
N        -10.74600       -0.27500       -1.17900
C         -6.32000       -4.40600        0.04900
O         -6.63200       -5.28400       -1.03600
H         -6.26200       -3.18900       -2.43000
H         -6.52000       -2.22100        0.34600
H         -8.71200       -3.42200        0.42600
H         -8.55600       -3.69600       -1.32600
H         -8.42700       -1.26700       -1.76000
H         -8.54700       -0.94200        0.03900
H        -10.59600       -2.29300       -1.75100
H        -10.79400       -2.06700       -0.00700
H         -9.91000        0.27500       -1.57800
H        -11.08800        0.18900       -0.29400
H        -11.52000       -0.31700       -1.92200
N         -5.20200       -4.83500        0.70300
C         -4.98800       -4.41500        2.11700
C         -4.11000       -5.49100        2.68800
O         -4.92000       -6.69000        2.64100
C         -6.27300       -4.27700        2.79800
C         -6.63100       -3.85000        4.13000
C         -6.23300       -4.40200        5.42800
C         -4.82400       -4.25200        5.87100
H         -4.95500       -5.80900        0.53900
H         -4.43600       -3.47700        2.07900
H         -6.89600       -5.27000        2.64800
H         -6.98200       -3.62100        2.10200
H         -6.43600       -2.69800        4.16800
H         -7.80100       -3.90300        4.16100
H         -6.90300       -4.01400        6.27000
H         -6.45100       -5.52000        5.50100
H         -4.80300       -3.77500        6.88900
H         -4.26100       -3.58700        5.15000
H         -4.24200       -5.17600        5.97900
N         -3.00600       -5.92100        1.86100
C         -2.09500       -5.01500        1.36200
C         -1.14900       -5.76700        0.40400
O         -0.91700       -6.95000        0.42600
C         -1.04900       -4.49700        2.33800
C         -1.36000       -3.79200        3.52500
C         -1.59400       -2.41300        3.53300
C         -1.34400       -4.41800        4.77800
C         -1.79500       -1.70800        4.69300
C         -1.54200       -3.72600        5.95100
C         -1.77100       -2.35300        5.92000
O         -1.97300       -1.64900        7.10900
H         -2.66800       -6.84000        2.18700
H         -2.54600       -4.21700        0.76300
H         -0.24800       -4.00600        1.69400
H         -0.42800       -5.42600        2.67200
H         -1.62500       -1.84300        2.61000
H         -1.16800       -5.48600        4.80500
H         -1.97700       -0.64700        4.71100
H         -1.52900       -4.19200        6.93300
H         -1.36100       -0.84100        7.27500
N         -0.54700       -4.95000       -0.56600
C          0.61500       -5.21200       -1.38400
C          1.75700       -4.29500       -1.01100
O          2.83500       -4.65900       -1.85500
C          0.18400       -5.16800       -2.80100
C          1.22400       -5.41800       -3.84700
N          0.53900       -5.36600       -5.19500
H         -1.06300       -4.09700       -0.80300
H          0.90300       -6.28300       -1.13600
H         -0.41900       -4.25700       -3.05000
H         -0.56800       -6.01600       -2.91700
H          1.98200       -4.60000       -3.89000
H          1.74400       -6.36700       -3.76100
H          1.29800       -5.17500       -5.91900
H         -0.16700       -4.56800       -5.15300
H          0.06700       -6.29700       -5.35900
N          1.51100       -2.95000       -1.18000
C          1.03000       -1.98800       -0.33800
C          1.69900       -1.58900        0.90900
O          1.04800       -0.86600        1.70400
C         -0.43300       -1.69900       -0.15100
S         -1.16100       -1.17500       -1.71200
H          1.38500       -2.64800       -2.18900
H          1.30300       -0.98000       -0.98500
H         -0.46200       -0.76000        0.53700
H         -1.06400       -2.37000        0.36500
N          3.01300       -1.90900        1.34300
C          3.41700       -1.36800        2.61700
C          3.76800        0.06900        2.55700
O          3.92800        0.66400        3.63700
C          4.32900       -2.23800        3.36400
C          3.79600       -3.58500        3.74900
C          4.91300       -1.62300        4.61300
C          3.37000       -4.48700        2.65200
H          3.55600       -2.48300        0.70700
H          2.44500       -1.34000        3.23200
H          5.22700       -2.44300        2.69000
H          4.46900       -4.08700        4.49300
H          2.86500       -3.37600        4.36900
H          5.57900       -2.43100        5.03500
H          4.11200       -1.51000        5.34700
H          5.56900       -0.77200        4.44800
H          2.30600       -4.29900        2.33500
H          3.98700       -4.52000        1.75900
H          3.41400       -5.54400        3.08200
N          3.94800        0.84700        1.38100
C          4.21200        2.25800        1.55000
C          3.86000        3.18900        0.50800
O          3.96300        4.41800        0.72500
C          5.61200        2.47400        2.10900
C          6.72800        1.93800        1.30300
C          8.01800        2.23300        2.08600
N          8.22000        3.64700        2.28700
C          9.36000        4.05900        3.06200
N          9.54400        5.46000        3.24300
N         10.17900        3.20200        3.56500
H          3.87900        0.33900        0.50400
H          3.56900        2.52400        2.47400
H          5.63500        2.09800        3.13300
H          5.76000        3.58900        2.21100
H          6.85300        2.36700        0.30300
H          6.73100        0.83900        1.16800
H          8.90700        1.80000        1.59000
H          7.93100        1.77600        3.11700
H          7.59400        4.37900        1.90300
H         10.43800        5.93500        2.97900
H          8.72200        5.97300        3.66200
H          9.98200        2.19200        3.38800
H         10.98600        3.55800        4.11600
N          3.37300        2.90600       -0.83100
C          3.15000        3.95300       -1.79500
C          4.22000        4.93300       -2.01900
O          3.90600        5.95400       -2.73100
C          1.75900        4.44900       -1.97400
S          0.74800        3.25000       -2.84400
H          3.21700        1.89900       -0.97500
H          3.30500        3.28500       -2.80200
H          1.81000        5.37600       -2.62200
H          1.31300        4.83000       -1.02600
N          5.54600        4.88600       -1.56200
C          6.55400        5.87500       -1.84200
C          7.67800        5.11400       -2.51400
O          7.45800        3.87500       -2.67500
C          7.15800        6.59600       -0.70600
C          6.29700        7.40000        0.14800
C          6.03900        8.71800       -0.26000
C          5.72700        7.02500        1.33700
C          5.25800        9.54200        0.51800
C          4.94500        7.85100        2.11400
C          4.68700        9.16900        1.70800
O          3.90200        9.98300        2.49900
H          5.83800        4.06000       -1.00000
H          6.10300        6.60100       -2.58000
H          7.96800        7.26500       -1.12600
H          7.68400        5.83600       -0.07000
H          6.46200        9.08900       -1.20800
H          5.90200        6.03600        1.69000
H          5.07400       10.56300        0.16900
H          4.49800        7.53600        3.05900
H          2.93300       10.18100        2.30600
N          8.87700        5.74900       -2.92700
C          9.88200        4.91400       -3.55500
C         11.12700        4.86800       -2.72600
O         11.23700        5.48700       -1.63400
C         10.26900        5.35600       -4.93700
H          9.01300        6.76100       -2.78300
H          9.44200        3.89000       -3.64400
H         10.15000        4.52500       -5.69000
H         11.36000        5.61300       -5.00000
H          9.64900        6.18200       -5.31200
N         12.19600        4.06800       -3.25700
H         13.13700        4.47000       -3.45500
H         11.95000        3.05600       -3.42300
H         -0.04100        2.89400       -0.87700
H         -1.16900        0.90700        0.01000
H         -3.34800        1.06800       -0.06700
H         -4.75900        2.01100       -1.51200
H         -3.53500        3.78000       -3.20100
H         -1.76500        4.74700       -1.52000
H         -3.02200        0.75100       -3.57100
H         -3.86200        1.83600       -5.16600
H         -7.28300       -4.76800        0.71000
H         -5.90600       -5.93900       -1.06900
H         -3.83900       -5.37400        3.70800
H         -4.58100       -7.31200        3.33600
H          2.15900       -4.57700        0.00500
H          3.48300       -3.93300       -1.93300
