223
6y13_stapledHelix_conf36.pdb
C          1.00600        3.21200       -4.00300
C          0.02400        2.80800       -2.89700
C          0.86000        2.20000       -1.81000
C          0.18200        2.43500       -0.45700
C          0.24900        3.92300       -0.27400
C         -0.78500        4.48900       -1.18000
C         -0.87200        3.90800       -2.55900
C         -2.30100        3.61300       -2.93800
C         -0.06200        4.31300        1.15800
C          1.00000        0.72700       -1.92200
H          1.24200        2.39700       -4.69000
H          1.86500        3.77700       -3.61900
H          0.40900        3.94500       -4.62500
H         -0.87600        2.09300       -0.59100
H         -0.70100        5.59500       -1.14900
H         -2.79700        4.51000       -3.41300
H         -2.93500        3.41200       -2.04700
H          1.77300        0.40600       -1.20000
O         -1.34200        3.81600        1.43200
H          0.05300        0.21800       -1.57900
N          0.83300        3.77300        2.11500
C          2.16100        4.21700        2.15400
C          2.95200        3.49700        3.17000
O          4.08000        3.94200        3.45500
C          2.38100        5.68200        2.36000
C          1.86100        6.26600        3.58600
N          1.99200        7.59400        3.88600
C          1.18100        5.72900        4.65700
C          1.42100        7.81000        5.06100
N          0.90500        6.67800        5.57100
H          0.44900        3.30500        2.92700
H          2.72200        3.99000        1.17700
H          1.92400        6.25300        1.49400
H          3.45900        5.93700        2.29300
H          0.89800        4.69600        4.77600
H          1.38900        8.80700        5.53000
H          0.39600        6.54100        6.48100
N          2.56700        2.33000        3.86700
C          3.47200        1.75800        4.94700
C          2.64200        1.44400        6.09900
C          3.08700        0.87900        7.37700
C          3.65000       -0.46800        7.50700
N          2.67500       -1.49200        7.01500
C          4.33500        0.78300        4.25600
O          5.34800        0.19100        4.98800
H          1.69400        1.90000        3.62500
H          4.15500        2.63500        5.20100
H          1.65600        0.93200        5.77500
H          2.17200        2.46700        6.40100
H          2.21700        0.91300        8.13900
H          3.77800        1.65400        7.85900
H          4.60600       -0.74100        7.12000
H          3.65500       -0.68600        8.65200
H          2.17800       -1.08800        6.16100
H          1.95200       -1.67200        7.78400
H          3.21200       -2.37500        6.77400
N          3.64200       -0.20900        3.44700
C          4.64800       -1.17300        2.95700
C          5.50900       -0.45400        1.94800
O          4.65700        0.03400        0.98400
C          3.92100       -2.29800        2.30700
C          4.73600       -3.42400        1.78300
C          3.75900       -4.44300        1.17100
C          4.52900       -5.62500        0.62400
H          2.93600       -0.75600        3.93000
H          5.28900       -1.50500        3.80900
H          3.34100       -1.87900        1.44800
H          3.22800       -2.73000        3.07400
H          5.44900       -3.22600        0.99000
H          5.22200       -4.01100        2.61300
H          2.96600       -4.71300        1.88600
H          3.27200       -3.97300        0.28200
H          5.42700       -5.28400        0.08500
H          3.90700       -6.23300       -0.06100
H          4.88400       -6.24300        1.47300
N          6.54400       -1.33800        1.43300
C          7.36200       -0.74700        0.41800
C          6.75100       -0.51900       -0.89400
O          7.37200        0.19600       -1.70800
C          8.71000       -1.43800        0.30500
C          8.56900       -2.86400       -0.02900
C          8.44800       -3.83700        0.95500
C          8.55900       -3.25900       -1.34900
C          8.31700       -5.18500        0.63500
C          8.42900       -4.60100       -1.67300
C          8.30700       -5.58400       -0.68500
O          8.17800       -6.92600       -1.03900
H          7.17500       -1.54400        2.23700
H          7.61800        0.28800        0.81300
H          9.27400       -0.95300       -0.51000
H          9.24500       -1.28100        1.24800
H          8.45200       -3.55200        1.99900
H          8.65000       -2.57100       -2.18000
H          8.22500       -5.91300        1.43500
H          8.41600       -4.96700       -2.68500
H          8.84300       -7.28900       -1.70700
N          5.51600       -1.03400       -1.37800
C          4.85900       -0.66100       -2.57900
C          4.31000       -1.70400       -3.46100
O          3.79000       -1.02400       -4.60500
C          5.39300        0.52700       -3.34800
C          5.28800        1.84300       -2.62000
N          5.88900        2.92300       -3.46500
H          5.10000       -1.77300       -0.79700
H          3.91300       -0.11000       -2.10600
H          4.68700        0.62900       -4.21100
H          6.37400        0.36600       -3.81200
H          4.16300        2.14000       -2.59600
H          5.56100        1.90900       -1.59100
H          5.62000        2.73200       -4.46800
H          6.93800        2.90400       -3.31400
H          5.47200        3.85900       -3.14400
N          3.42000       -2.66500       -2.99400
C          2.13500       -2.44400       -2.57200
C          1.35200       -3.66700       -2.24800
O          1.63000       -4.82900       -2.46800
C          1.20400       -1.66600       -3.49400
S          1.45900        0.10800       -3.56100
H          3.78800       -3.64800       -2.93900
H          2.15100       -1.82300       -1.62600
H          1.15400       -2.13400       -4.50100
H          0.16900       -1.79500       -3.08800
N          0.09200       -3.42400       -1.56900
C         -0.92000       -4.43100       -1.38800
C         -2.28000       -3.88300       -1.71400
O         -3.27500       -4.59600       -1.91900
C         -1.05900       -4.84800        0.09000
C          0.21300       -5.41000        0.63800
C         -2.15900       -5.87500        0.21800
C         -0.00900       -5.79800        2.08400
H         -0.00600       -2.48200       -1.20400
H         -0.67900       -5.29700       -2.00900
H         -1.37900       -3.92400        0.61900
H          0.49500       -6.30100        0.06200
H          1.00000       -4.61700        0.55000
H         -3.11400       -5.40800        0.60000
H         -1.87600       -6.61400        1.00700
H         -2.35000       -6.38600       -0.74300
H          0.88100       -5.55000        2.70100
H         -0.92500       -5.32500        2.44500
H         -0.18600       -6.89100        2.11100
N         -2.54100       -2.47300       -1.80200
C         -3.82000       -1.93300       -2.20100
C         -3.74100       -0.51900       -2.64500
O         -2.80300        0.23500       -2.37500
C         -4.71100       -1.85900       -0.90200
C         -4.03400       -0.97000        0.08100
C         -4.79800       -0.80400        1.35400
N         -4.02300        0.08900        2.19400
C         -4.43100        0.52600        3.47700
N         -3.61800        1.40200        4.23000
N         -5.55500        0.10300        3.92200
H         -1.77700       -1.86300       -1.56600
H         -4.40600       -2.53300       -2.87300
H         -5.70400       -1.54700       -1.20700
H         -4.73200       -2.89000       -0.52600
H         -3.04000       -1.41200        0.32800
H         -3.83100        0.04900       -0.30800
H         -5.77000       -0.27800        1.16100
H         -5.03400       -1.76900        1.85600
H         -3.07800        0.46800        1.87300
H         -2.63800        1.10400        4.44000
H         -3.95300        2.33700        4.58900
H         -5.85200        0.43000        4.87000
H         -6.19400       -0.55000        3.39600
N         -4.77700        0.02900       -3.43900
C         -4.98100        1.38200       -3.83800
C         -6.35800        1.63800       -4.30200
O         -7.12300        0.60900       -4.35300
C         -3.97000        1.96500       -4.80100
S         -2.35200        2.30500       -4.15700
H         -5.47000       -0.67300       -3.77100
H         -4.79300        1.99800       -2.90000
H         -4.42500        2.88800       -5.23100
H         -3.94000        1.24600       -5.66100
N         -6.83400        2.93300       -4.68100
C         -8.20800        3.03000       -5.13000
C         -9.20100        2.35700       -4.29200
O        -10.34900        2.14700       -4.81100
C         -8.36200        2.86900       -6.59600
C         -7.88500        1.57400       -7.11900
C         -8.68800        0.45600       -7.23100
C         -6.54400        1.51600       -7.50900
C         -8.12500       -0.71100       -7.73500
C         -5.99700        0.34900       -8.00800
C         -6.79300       -0.77400       -8.12300
O         -6.24000       -1.96100       -8.63100
H         -6.17500        3.73600       -4.61400
H         -8.45000        4.14700       -4.93600
H         -7.93400        3.75000       -7.08800
H         -9.47700        2.90700       -6.79400
H         -9.72400        0.52300       -6.92500
H         -5.89900        2.38500       -7.43200
H         -8.77900       -1.57900       -7.81100
H         -4.93700        0.34500       -8.30400
H         -5.37900       -2.31100       -8.18600
N         -9.02200        1.91700       -2.96300
C        -10.16000        1.24700       -2.33200
C        -10.68700        2.24700       -1.33300
O        -10.12900        3.38100       -1.18900
C         -9.65300        0.07700       -1.55400
H         -8.15300        2.06600       -2.44100
H        -10.96500        1.00900       -3.03800
H         -8.59000        0.28700       -1.22800
H         -9.62100       -0.86200       -2.11500
H        -10.19300       -0.05400       -0.57600
N        -11.81000        1.88100       -0.57200
H        -12.45800        2.57600       -0.12800
H        -12.03900        0.87200       -0.42100
H         -0.51000        1.92500       -3.36000
H          1.83300        2.70600       -1.77500
H          0.61300        1.84800        0.35000
H          1.24500        4.31800       -0.52900
H         -1.77700        4.29000       -0.67800
H         -0.61100        4.79500       -3.22700
H         -0.15500        5.40400        1.18100
H         -2.00800        4.51400        1.59100
H          4.89300        1.40600        3.47800
H          5.97900        0.84500        5.35000
H          6.06700        0.41400        2.35400
H          3.83200        0.32900        1.44900
H          5.19700       -2.25300       -3.90300
H          3.65900       -1.66000       -5.35500
