223
6y13_stapledHelix_conf8.pdb
C          3.53100       -6.72000        0.71100
C          2.31000       -5.76900        0.71500
C          2.22400       -5.23900        2.08200
C          3.29700       -4.24800        2.31800
C          3.48100       -3.16800        1.28400
C          3.02100       -3.47600       -0.06800
C          2.41700       -4.76400       -0.41700
C          3.06300       -5.52600       -1.55100
C          3.03800       -1.85200        1.87300
C          0.93300       -4.76600        2.61500
H          3.26600       -7.73100        0.34800
H          3.85700       -6.91800        1.78400
H          4.40200       -6.29500        0.22200
H          3.07600       -3.75800        3.30500
H          3.84900       -3.30400       -0.82800
H          3.17100       -6.64000       -1.28400
H          4.15100       -5.19600       -1.52800
H          1.09100       -4.66300        3.73400
O          3.68500       -1.78000        3.12500
H          0.61200       -3.85500        2.14700
N          3.06600       -0.69400        1.12900
C          2.63500        0.52600        1.57000
C          3.19200        1.23600        2.72800
O          4.08200        0.84800        3.48800
C          1.13200        0.41200        1.89500
C          0.30700        0.06700        0.74800
N         -0.25700        0.99800       -0.06700
C         -0.06500       -1.15700        0.26300
C         -0.96100        0.40400       -1.03200
N         -0.83100       -0.91800       -0.81500
H          3.01100       -0.82900        0.10300
H          2.64800        1.26500        0.71700
H          0.81800        1.36000        2.30600
H          1.08100       -0.32400        2.72800
H          0.18700       -2.13100        0.63800
H         -1.50900        0.92800       -1.79700
H         -1.24200       -1.68800       -1.37100
N          2.65200        2.52000        3.01400
C          2.96600        3.37200        4.12400
C          3.41500        4.74200        3.85700
C          2.51700        5.66700        3.11600
C          3.31600        6.98400        2.97800
N          2.47400        7.95600        2.23800
C          1.83300        3.36400        5.14800
O          1.80400        2.03700        5.73200
H          1.97400        2.88300        2.32800
H          3.82400        2.90800        4.73800
H          4.45700        4.82100        3.45900
H          3.52800        5.22200        4.88300
H          1.65800        5.97400        3.75300
H          2.25500        5.38000        2.09200
H          3.45800        7.36100        4.00300
H          4.27500        6.81800        2.48300
H          1.68900        7.41700        1.75200
H          3.08600        8.42400        1.49600
H          2.09800        8.66800        2.92100
N          0.55400        3.39300        4.49600
C         -0.50800        3.70500        5.48100
C         -1.85500        3.37200        4.79000
O         -2.89600        3.68600        5.68900
C         -0.45600        5.20100        5.64000
C         -1.40100        5.83300        6.58200
C         -1.07100        7.35000        6.56100
C         -1.23700        7.91300        5.16900
H          0.41000        4.02100        3.72400
H         -0.38200        3.19100        6.42300
H         -0.62700        5.63200        4.59600
H          0.56800        5.56300        5.89200
H         -2.47900        5.73300        6.34000
H         -1.23800        5.49700        7.62000
H         -1.80300        7.89700        7.19700
H         -0.02000        7.52000        6.86500
H         -2.23700        7.64600        4.72900
H         -0.38600        7.65000        4.51700
H         -1.20200        9.03500        5.29600
N         -1.95100        1.92100        4.65400
C         -3.05000        1.44200        3.87200
C         -3.14300       -0.06100        3.95700
O         -3.83700       -0.70500        3.16100
C         -3.00300        1.95600        2.47900
C         -4.11500        1.51800        1.60300
C         -5.28300        2.26900        1.67600
C         -4.09100        0.48000        0.72600
C         -6.39300        2.01100        0.91300
C         -5.20000        0.21100       -0.04700
C         -6.36600        0.96500        0.03000
O         -7.47400        0.66300       -0.77000
H         -2.09500        1.57100        5.66000
H         -3.99000        1.87200        4.34100
H         -2.86400        3.03100        2.38200
H         -2.07300        1.50500        2.01400
H         -5.34900        3.10500        2.36300
H         -3.21000       -0.12500        0.62900
H         -7.31100        2.60800        0.98000
H         -5.20500       -0.60500       -0.74900
H         -8.28600        1.25200       -0.69400
N         -2.47300       -0.83400        4.93600
C         -2.43000       -2.25500        5.09400
C         -3.53400       -3.06900        4.49800
O         -3.35900       -4.37900        5.05900
C         -2.26500       -2.60200        6.52300
C         -1.01500       -2.07000        7.17900
N         -1.06400       -2.54800        8.59900
H         -1.93800       -0.27900        5.62600
H         -1.44900       -2.62200        4.57200
H         -2.27500       -3.72300        6.67800
H         -3.12800       -2.24300        7.15500
H         -0.07900       -2.46900        6.78500
H         -1.02800       -0.97300        7.28500
H         -0.55000       -1.85700        9.20800
H         -0.61800       -3.51800        8.64000
H         -2.09700       -2.62400        8.87200
N         -3.46700       -3.27700        3.06200
C         -2.33700       -3.97600        2.57000
C         -2.35500       -4.31000        1.14900
O         -1.35500       -4.92000        0.69400
C         -1.85600       -5.16700        3.35300
S         -0.42500       -5.95000        2.48900
H         -4.35000       -3.71100        2.78500
H         -1.47600       -3.23400        2.65000
H         -1.41000       -4.91000        4.33600
H         -2.63100       -5.92400        3.46700
N         -3.36400       -4.04600        0.16400
C         -3.05300       -4.52200       -1.16800
C         -3.16200       -3.50800       -2.25500
O         -4.02000       -2.64700       -2.36900
C         -4.15000       -5.55500       -1.47600
C         -3.97300       -6.16900       -2.83800
C         -5.51600       -4.90200       -1.47400
C         -2.66600       -6.89300       -2.94800
H         -4.17800       -3.55800        0.48800
H         -2.11600       -5.05700       -1.22800
H         -4.11900       -6.36500       -0.71200
H         -4.83900       -6.87100       -3.00800
H         -4.09800       -5.39800       -3.63600
H         -5.87000       -4.67500       -2.50700
H         -6.24200       -5.64600       -1.03500
H         -5.59100       -3.99300       -0.87400
H         -2.09200       -6.89700       -2.02300
H         -2.88600       -7.96600       -3.18600
H         -2.06900       -6.43100       -3.75600
N         -2.14800       -3.54600       -3.24200
C         -1.96800       -2.79600       -4.44900
C         -0.49200       -2.73600       -4.74400
O          0.01600       -2.51800       -5.83300
C         -2.41000       -1.32200       -4.26700
C         -2.22100       -0.60800       -5.59000
C         -2.64100        0.85500       -5.52600
N         -1.85300        1.58500       -4.57500
C         -2.01400        2.96000       -4.26300
N         -1.16900        3.59500       -3.29400
N         -2.93300        3.63400       -4.86800
H         -1.41200       -4.27300       -3.04700
H         -2.53400       -3.11500       -5.32100
H         -1.81800       -0.86600       -3.46700
H         -3.47000       -1.29400       -4.05300
H         -2.88600       -1.09500       -6.33100
H         -1.18000       -0.70500       -5.89200
H         -2.43500        1.26900       -6.52400
H         -3.72000        0.87800       -5.36000
H         -1.09800        1.07800       -4.08100
H         -0.13200        3.61100       -3.38000
H         -1.58500        4.07200       -2.45300
H         -3.07200        4.64800       -4.65700
H         -3.55400        3.20200       -5.57100
N          0.46400       -2.94200       -3.66400
C          1.88000       -2.89700       -3.81400
C          2.40600       -1.68400       -4.52000
O          3.62700       -1.81000       -4.91000
C          2.56300       -4.13000       -4.24300
S          2.36400       -5.49300       -3.15300
H          0.04400       -3.11200       -2.76000
H          2.27000       -2.70400       -2.74800
H          2.24400       -4.46100       -5.27900
H          3.65700       -3.85500       -4.36100
N          1.69900       -0.50200       -4.76200
C          2.35700        0.59200       -5.49500
C          2.84300        1.63300       -4.59100
O          3.42100        2.63800       -5.10900
C          1.49900        1.11600       -6.58700
C          2.04700        2.20600       -7.39000
C          1.87200        3.55100       -7.15900
C          2.83200        1.87100       -8.48700
C          2.43800        4.52200       -7.96100
C          3.40400        2.84200       -9.29700
C          3.22100        4.18600       -9.05400
O          3.81200        5.10700       -9.89000
H          0.72700       -0.39700       -4.41200
H          3.27200        0.08100       -5.94100
H          0.51800        1.44400       -6.14800
H          1.23000        0.28200       -7.28200
H          1.26800        3.83600       -6.32400
H          3.01300        0.81900       -8.72800
H          2.30700        5.58100       -7.78600
H          4.01800        2.57000      -10.15400
H          3.44600        6.03400      -10.08000
N          2.73500        1.63000       -3.18100
C          3.26000        2.71500       -2.38500
C          4.39000        2.27400       -1.52400
O          5.00000        3.04400       -0.73700
C          2.20600        3.30900       -1.49800
H          2.25200        0.79600       -2.74500
H          3.66000        3.47600       -3.10200
H          1.25100        2.76000       -1.61200
H          2.53300        3.37500       -0.43300
H          1.98000        4.36200       -1.84900
N          4.82400        0.92000       -1.57100
H          4.15600        0.11500       -1.76600
H          5.83900        0.66400       -1.41400
H          1.44200       -6.44000        0.55100
H          2.49400       -6.12900        2.76400
H          4.25600       -4.80800        2.53200
H          4.61500       -3.05100        1.23400
H          2.30500       -2.65100       -0.36800
H          1.34800       -4.62700       -0.76500
H          1.98000       -2.02200        2.19800
H          4.66500       -1.91400        3.01400
H          1.90900        4.05500        5.94700
H          2.46500        2.07000        6.45700
H         -2.01400        3.89600        3.87900
H         -2.77900        3.05600        6.44700
H         -4.49300       -2.71500        4.78000
H         -4.08900       -4.61900        5.64800
