223
6y13_stapledHelix_conf1.pdb
C         -7.00300       -0.65400        1.09700
C         -5.51300       -0.88300        1.40500
C         -5.12400       -0.21000        2.68400
C         -4.46700       -1.06800        3.70700
C         -3.63300       -2.24000        3.29200
C         -3.95100       -2.69600        1.87800
C         -5.31500       -2.37500        1.45400
C         -5.79600       -3.02900        0.22500
C         -2.16000       -2.03300        3.47300
C         -4.39700        1.08000        2.38900
H         -7.21700       -0.56300        0.03700
H         -7.25400        0.33500        1.57300
H         -7.62400       -1.38200        1.65700
H         -5.29300       -1.43000        4.40500
H         -3.77700       -3.77600        1.77200
H         -6.86000       -2.55400        0.01500
H         -6.21500       -4.08900        0.51600
H         -4.02400        1.45300        3.40100
O         -1.91400       -0.64400        3.37100
H         -3.51900        0.91900        1.72500
N         -1.22200       -2.72700        2.62100
C          0.12100       -2.28800        3.04700
C          1.08100       -2.21700        1.85300
O          0.98200       -2.94500        0.87700
C          0.74500       -3.35300        3.97400
C          0.01000       -3.67100        5.17200
N          0.06000       -3.10700        6.36800
C         -0.91800       -4.72100        5.28200
C         -0.77500       -3.75300        7.18000
N         -1.40100       -4.75700        6.54800
H         -1.26700       -3.73700        2.85000
H          0.09900       -1.36300        3.59500
H          1.74500       -2.90600        4.23700
H          0.91900       -4.25200        3.34300
H         -1.24000       -5.41900        4.53700
H         -0.92100       -3.48000        8.23600
H         -2.11200       -5.44000        6.91000
N          2.13600       -1.26000        1.83500
C          3.09600       -0.98100        0.77800
C          2.64700       -1.26400       -0.60400
C          3.66800       -1.01300       -1.66800
C          3.16800       -1.36300       -3.05900
N          2.80900       -2.78500       -3.14700
C          3.74700        0.33900        1.07000
O          4.57800        0.32300        2.17800
H          2.21400       -0.70600        2.70000
H          3.88800       -1.79400        0.94500
H          1.65200       -0.89200       -0.87100
H          2.50600       -2.39800       -0.65500
H          4.60500       -1.58100       -1.51100
H          3.92500        0.04900       -1.74900
H          2.32300       -0.76000       -3.40400
H          4.01100       -1.21400       -3.75600
H          2.86600       -3.07100       -4.19100
H          1.81800       -2.92200       -2.80400
H          3.51700       -3.36000       -2.58900
N          4.07700        1.25600        0.10200
C          4.75800        2.45800        0.25500
C          4.33500        3.63100        1.02700
O          4.31900        3.06300        2.40000
C          5.46900        2.84800       -1.02400
C          6.52400        1.85300       -1.43600
C          7.14900        2.36000       -2.73000
C          8.22700        1.38200       -3.20700
H          3.12900        1.58200       -0.34800
H          5.74100        2.05900        0.87000
H          5.93200        3.84100       -0.96600
H          4.75200        2.87300       -1.88600
H          7.29500        1.73100       -0.64700
H          6.04700        0.89300       -1.67000
H          6.38600        2.51700       -3.51000
H          7.67000        3.33800       -2.59000
H          7.92600        0.34000       -2.98300
H          9.17500        1.69000       -2.72300
H          8.34700        1.55200       -4.28500
N          3.30900        4.46600        0.90000
C          2.80600        5.48000        0.05100
C          1.50600        5.98300        0.54300
O          1.22300        5.52300        1.72200
C          2.89000        5.24800       -1.39500
C          2.35400        6.24800       -2.33600
C          1.12600        6.12000       -2.97100
C          3.11400        7.37600       -2.60100
C          0.70000        7.10100       -3.83400
C          2.70500        8.37000       -3.46300
C          1.46900        8.21900       -4.08700
O          1.02700        9.22500       -4.97200
H          2.95100        4.75500        1.88100
H          3.58500        6.35700        0.25500
H          3.97000        5.06100       -1.72100
H          2.39300        4.27300       -1.68900
H          0.57900        5.22600       -2.72900
H          4.08500        7.52200       -2.12100
H         -0.26000        6.98400       -4.31700
H          3.31900        9.23400       -3.64400
H          0.41100        9.02900       -5.74100
N          0.51300        6.81700        0.07900
C         -0.75200        6.92900        0.92500
C         -1.66200        5.84700        0.38800
O         -0.90500        4.67200        0.50700
C         -1.34800        8.27000        0.82400
C         -2.60100        8.48300        1.64900
N         -3.01500        9.91900        1.44100
H          0.49900        7.39700       -0.72600
H         -0.52500        6.58800        1.95400
H         -1.66700        8.51200       -0.23900
H         -0.61900        9.10800        1.03000
H         -3.46900        7.89600        1.29900
H         -2.47200        8.28800        2.71900
H         -4.04100       10.00900        1.69000
H         -2.82600       10.15700        0.42900
H         -2.40200       10.51400        2.10200
N         -2.95200        5.66700        0.98800
C         -3.44900        4.29500        0.70200
C         -3.66700        4.24400       -0.76300
O         -3.69700        5.23600       -1.49800
C         -4.56500        4.01500        1.59700
S         -5.32100        2.41700        1.69300
H         -2.78200        5.65800        2.03400
H         -2.59100        3.62200        0.98200
H         -5.43000        4.75200        1.44500
H         -4.23300        4.28300        2.63900
N         -3.85400        2.99000       -1.39000
C         -3.88100        2.66700       -2.78600
C         -3.02300        1.45600       -2.99400
O         -2.84300        0.84500       -4.02800
C         -3.38000        3.82000       -3.65500
C         -3.42900        3.40900       -5.12300
C         -1.96500        4.17300       -3.36700
C         -4.81600        3.03300       -5.57500
H         -4.06200        2.22000       -0.72100
H         -4.87900        2.48700       -3.14700
H         -4.12200        4.63500       -3.59200
H         -2.66400        2.64800       -5.29300
H         -3.11200        4.30700       -5.74700
H         -1.67400        3.68000       -2.41900
H         -1.24100        3.72900       -4.11800
H         -1.72200        5.24900       -3.39000
H         -5.03900        3.42000       -6.60800
H         -4.83300        1.91400       -5.71100
H         -5.59200        3.33900       -4.84900
N         -2.34400        0.97100       -1.85000
C         -1.39800       -0.12400       -1.73800
C         -2.19600       -1.42000       -1.52800
O         -3.36200       -1.26500       -1.26500
C         -0.92700        0.05900       -0.26600
C         -0.24700        1.34000        0.03500
C         -0.10500        1.34600        1.57200
N          0.64500        2.44100        2.08600
C          0.91700        2.62000        3.46800
N          1.62500        3.68500        4.04800
N          0.46500        1.73200        4.32600
H         -2.54500        1.47500       -0.97300
H         -0.67800       -0.24900       -2.48800
H         -1.88400        0.12100        0.30500
H         -0.46500       -0.86000        0.05100
H         -0.81200        2.16200       -0.35900
H          0.79200        1.25900       -0.32100
H          0.27300        0.40800        1.87800
H         -1.17700        1.51300        1.97600
H          1.03400        3.10000        1.38500
H          1.08500        4.56300        4.24800
H          2.62400        3.70500        4.31800
H         -0.05400        0.97000        3.92300
H          0.62400        1.79300        5.34600
N         -1.65100       -2.70500       -1.63900
C         -2.28000       -3.92100       -1.19800
C         -1.45800       -5.10700       -1.02000
O         -2.01000       -6.10600       -0.44800
C         -3.67400       -4.19400       -1.73200
S         -5.00200       -3.19000       -1.27900
H         -0.72400       -2.76100       -2.08600
H         -2.56200       -3.64900       -0.12400
H         -3.83400       -5.31100       -1.59600
H         -3.53900       -4.13600       -2.86000
N         -0.11000       -5.30200       -1.39500
C          0.48100       -6.59400       -1.04200
C          1.80800       -6.31100       -0.46300
O          2.29200       -5.16800       -0.69100
C          0.51800       -7.50000       -2.25400
C          1.08900       -8.82200       -1.95400
C          2.41200       -9.17500       -2.10000
C          0.19200       -9.79300       -1.48700
C          2.77800      -10.47400       -1.77500
C          0.58400      -11.06800       -1.17200
C          1.89700      -11.41900       -1.31600
O          2.26600      -12.72400       -0.98700
H          0.37500       -4.54600       -1.88500
H         -0.12200       -7.13400       -0.29700
H         -0.52400       -7.62700       -2.64300
H          1.13600       -6.98900       -3.03900
H          3.09800       -8.43300       -2.45800
H         -0.85700       -9.55000       -1.35700
H          3.82100      -10.74400       -1.89200
H         -0.16300      -11.78300       -0.80600
H          2.16300      -13.10700       -0.03800
N          2.58400       -7.19100        0.32500
C          3.88200       -6.69600        0.80400
C          4.86200       -7.79400        0.74700
O          4.59800       -8.97400        0.40300
C          3.71800       -6.36700        2.29700
H          2.21700       -8.13600        0.54400
H          4.14400       -5.79100        0.25100
H          4.72500       -6.44600        2.74700
H          3.03300       -7.11300        2.70800
H          3.40100       -5.31400        2.42800
N          6.23500       -7.54300        1.10100
H          6.50300       -6.87100        1.85200
H          6.99300       -8.05300        0.58000
H         -4.98300       -0.46500        0.55100
H         -6.10800        0.17000        3.12700
H         -3.87500       -0.43000        4.37300
H         -3.92800       -3.10000        3.92400
H         -3.24800       -2.14500        1.26100
H         -6.00000       -2.70600        2.33700
H         -1.83400       -2.24000        4.53500
H         -1.96800       -0.21400        4.26500
H          2.80600        0.91000        1.60200
H          5.28900       -0.37700        2.06100
H          5.29700        4.28600        1.17100
H          5.24600        2.91400        2.62800
H         -1.78300        6.03300       -0.68400
H         -0.41600        4.49600       -0.34100
