223
6y13_stapledHelix_conf23.pdb
C         -0.64200        1.36900        1.38000
C          0.60000        2.12000        1.69400
C          1.50700        2.43100        0.53800
C          2.62200        3.34000        0.96400
C          2.82000        3.51500        2.43700
C          1.55100        3.73400        3.19500
C          0.32400        3.45600        2.33400
C         -0.86200        3.58900        3.19500
C          3.73300        2.48100        3.06100
C          2.14500        1.25100       -0.13700
H         -0.47700        0.26400        1.19300
H         -1.31500        1.83600        0.63700
H         -1.28100        1.30100        2.31800
H          2.49000        4.34900        0.46700
H          1.42600        4.75100        3.61400
H         -0.84300        4.65900        3.58000
H         -0.80600        3.00400        4.14400
H          2.65900        1.63500       -1.08000
O          5.08600        2.84200        2.75700
H          3.01900        0.90100        0.46300
N          3.57800        2.44700        4.49400
C          4.41900        1.51700        5.14500
C          4.12900        0.08900        5.01400
O          4.92600       -0.73100        5.52600
C          4.55500        1.81900        6.64600
C          5.13300        3.14000        6.88500
N          6.47400        3.35000        7.00600
C          4.57000        4.38500        7.03800
C          6.72900        4.64800        7.22000
N          5.54300        5.31500        7.24300
H          3.76400        3.39700        4.86800
H          5.48600        1.63500        4.77400
H          3.53000        1.67000        7.04300
H          5.16600        0.98600        7.06000
H          3.50400        4.55800        6.99600
H          7.67700        5.15900        7.36000
H          5.38800        6.33500        7.38400
N          3.02300       -0.51400        4.36600
C          2.85100       -1.98900        4.30300
C          1.49600       -2.23000        4.86300
C          1.00400       -3.62700        4.94900
C         -0.40400       -3.53000        5.56300
N         -0.95700       -4.88500        5.67300
C          2.96900       -2.44300        2.85900
O          1.97300       -1.79600        2.16900
H          2.33400        0.10500        3.95700
H          3.64100       -2.45300        4.88400
H          0.74300       -1.59100        4.30800
H          1.49000       -1.75900        5.89600
H          1.61100       -4.23800        5.61000
H          0.90100       -4.04400        3.92800
H         -0.33300       -3.12500        6.59100
H         -1.09300       -2.94900        4.92100
H         -0.28900       -5.52300        6.18300
H         -1.16900       -5.24500        4.68300
H         -1.89700       -4.82300        6.20100
N          4.23100       -2.07100        2.30300
C          4.26800       -2.16400        0.84400
C          4.40600       -3.52200        0.27400
O          4.31800       -3.48700       -1.10600
C          5.56200       -1.39400        0.50500
C          5.86100       -1.26800       -0.93800
C          4.83600       -0.50800       -1.74100
C          5.18300       -0.41200       -3.21700
H          4.39000       -1.05800        2.50800
H          3.43100       -1.59600        0.40000
H          6.43500       -1.89800        0.98300
H          5.52900       -0.37100        0.94000
H          6.78800       -0.60500       -0.98200
H          6.21700       -2.19500       -1.44600
H          3.84500       -0.93300       -1.58400
H          4.90200        0.55300       -1.36500
H          4.21900       -0.26600       -3.77100
H          5.74100       -1.28600       -3.54700
H          5.80600        0.49600       -3.43200
N          3.60900       -4.59000        0.79000
C          3.63600       -5.73900       -0.13600
C          2.67500       -5.59700       -1.24700
O          2.66800       -6.35900       -2.22600
C          3.44100       -7.04800        0.60000
C          2.16600       -7.14100        1.32000
C          1.06400       -7.62300        0.61600
C          2.00100       -6.78900        2.64500
C         -0.16700       -7.75600        1.19900
C          0.76500       -6.93000        3.20500
C         -0.32400       -7.40000        2.53100
O         -1.59000       -7.55200        3.07500
H          4.11100       -4.92800        1.67700
H          4.65600       -5.80000       -0.56700
H          3.48600       -7.85800       -0.16800
H          4.29100       -7.26000        1.28400
H          1.17700       -7.89600       -0.41700
H          2.87800       -6.41700        3.16400
H         -1.03300       -8.13900        0.63900
H          0.65600       -6.65300        4.24300
H         -1.73600       -8.20800        3.81800
N          1.65200       -4.57300       -1.30100
C          0.70500       -4.53000       -2.42500
C          0.29600       -3.11600       -2.72500
O          1.53800       -2.49900       -3.06300
C         -0.45200       -5.47100       -2.14300
C         -1.37700       -5.43900       -3.32500
N         -0.55200       -5.90900       -4.48000
H          1.66500       -3.92900       -0.51800
H          1.22100       -4.97300       -3.27800
H         -0.94500       -5.29900       -1.17300
H         -0.00400       -6.49800       -2.16200
H         -2.18700       -6.20800       -3.23000
H         -1.75300       -4.47100       -3.61500
H          0.12100       -6.65000       -4.11600
H         -0.02400       -5.09000       -4.88200
H         -1.21200       -6.33400       -5.20000
N         -0.36000       -2.46300       -1.68200
C         -0.92000       -1.19900       -1.72500
C         -2.12900       -1.02100       -2.54200
O         -2.61400       -1.97500       -3.13600
C          0.01900       -0.01300       -1.92300
S          1.19000       -0.12500       -0.57400
H          0.12500       -2.62400       -0.78700
H         -1.36800       -1.06300       -0.64500
H         -0.48600        0.95800       -1.81000
H          0.46400       -0.00700       -2.92300
N         -2.77900        0.22700       -2.67800
C         -4.01600        0.50000       -3.36200
C         -5.08800        0.78700       -2.38000
O         -6.27400        0.97800       -2.58500
C         -4.49200       -0.42200       -4.40100
C         -3.64900       -0.60100       -5.61900
C         -5.86900        0.05500       -4.90800
C         -4.36700       -1.60800       -6.51800
H         -2.30800        1.02700       -2.23400
H         -3.77500        1.45700       -3.95000
H         -4.72000       -1.45000       -3.99600
H         -2.63700       -0.93300       -5.48200
H         -3.70700        0.38400       -6.17000
H         -5.97000        1.15700       -4.84900
H         -5.99400       -0.18000       -5.99700
H         -6.69700       -0.41300       -4.38500
H         -3.68400       -2.42200       -6.81100
H         -5.20300       -2.08900       -5.97100
H         -4.83300       -1.11200       -7.40700
N         -4.67100        0.85000       -1.01200
C         -5.55300        1.05600        0.12400
C         -5.28400        2.44300        0.57300
O         -5.95900        2.91300        1.48700
C         -5.22900        0.04900        1.20400
C         -6.08700        0.16400        2.40900
C         -7.56200       -0.06100        2.12100
N         -7.77500       -1.39700        1.57500
C         -9.06600       -1.89000        1.23400
N         -9.14100       -3.20000        0.71300
N        -10.11000       -1.14000        1.40600
H         -3.68000        0.74200       -0.82700
H         -6.61300        1.01100       -0.10200
H         -5.25400       -0.98700        0.83100
H         -4.18300        0.31300        1.53600
H         -5.81800       -0.58400        3.19900
H         -5.99700        1.13900        2.92100
H         -8.07500       -0.06100        3.10300
H         -7.99900        0.71900        1.50100
H         -6.93300       -2.01700        1.42800
H         -8.77100       -3.99000        1.31400
H         -9.55500       -3.39900       -0.25000
H        -11.06700       -1.47200        1.16700
H         -9.97300       -0.18200        1.79600
N         -4.27700        3.31500        0.02500
C         -4.19800        4.63400        0.62400
C         -4.22900        5.67100       -0.42600
O         -4.81300        6.76200       -0.10500
C         -2.77900        4.76900        1.24400
S         -2.47300        3.44900        2.40400
H         -3.72400        2.92400       -0.72100
H         -4.93700        4.77800        1.40500
H         -2.11600        4.76400        0.36800
H         -2.74300        5.73200        1.74500
N         -3.66600        5.54200       -1.73000
C         -3.84400        6.67400       -2.61400
C         -3.56400        6.43800       -4.02300
O         -3.95300        7.32600       -4.85800
C         -3.00600        7.88400       -2.13200
C         -1.56400        7.60200       -2.08400
C         -0.75200        7.76800       -3.19100
C         -0.96800        7.18300       -0.91100
C          0.60800        7.50900       -3.07400
C          0.36800        6.92100       -0.77000
C          1.17000        7.08800       -1.87200
O          2.52300        6.82400       -1.73400
H         -3.16800        4.66600       -1.97700
H         -4.87900        7.03500       -2.43300
H         -3.20100        8.74700       -2.83400
H         -3.44700        8.19800       -1.17300
H         -1.14400        8.09400       -4.15200
H         -1.61500        7.06400       -0.06000
H          1.28700        7.62300       -3.91300
H          0.74500        6.60400        0.17700
H          2.96100        5.92700       -1.86500
N         -2.89100        5.32300       -4.58700
C         -2.72500        5.33300       -6.02700
C         -2.57600        3.98400       -6.57000
O         -2.58600        2.92200       -5.87800
C         -1.40100        6.05400       -6.38600
H         -2.55600        4.57400       -3.95600
H         -3.50000        5.92700       -6.54200
H         -0.59600        5.70200       -5.73900
H         -1.17400        5.73100       -7.42400
H         -1.55500        7.14000       -6.40700
N         -2.40500        3.81400       -7.97100
H         -1.51700        3.37900       -8.36800
H         -3.13000        4.10600       -8.66500
H          1.13500        1.50700        2.47600
H          0.89200        2.96500       -0.20900
H          3.57900        2.97700        0.54500
H          3.39400        4.48400        2.56000
H          1.50900        3.02200        4.03700
H          0.31900        4.26800        1.57400
H          3.63800        1.48400        2.64800
H          5.54000        3.23300        3.52700
H          2.72700       -3.51000        2.85700
H          2.05800       -0.82600        2.18300
H          5.52100       -3.81100        0.44500
H          4.86300       -4.11600       -1.59800
H         -0.30900       -3.06000       -3.64900
H          1.68600       -2.63000       -4.02400
