223
6y13_stapledHelix_conf28.pdb
C          2.15200       -3.36700       -2.39400
C          2.40900       -3.01800       -0.93500
C          1.35000       -2.03200       -0.52900
C          0.02500       -2.73500       -0.69000
C         -0.03300       -3.99300        0.15500
C          1.03200       -4.96700       -0.18400
C          2.38400       -4.22500       -0.05800
C          3.51900       -5.17800       -0.28700
C         -1.45000       -4.45600        0.16300
C          1.50200       -1.50500        0.88500
H          1.42900       -4.15900       -2.54200
H          3.08200       -3.60700       -2.94700
H          1.76700       -2.44200       -2.90400
H         -0.17600       -2.90000       -1.74200
H          1.08100       -5.73900        0.63500
H          3.02800       -6.11800       -0.70700
H          3.88700       -5.55600        0.75400
H          0.56800       -1.76400        1.44900
O         -2.20800       -3.44400        0.74900
H          2.42100       -1.84700        1.36700
N         -1.88700       -4.89100       -1.11600
C         -3.38700       -5.06500       -1.15900
C         -3.80000       -3.62700       -1.22200
O         -2.93200       -2.83500       -1.65200
C         -3.84500       -5.81200        0.03100
C         -5.27400       -6.18000        0.05300
N         -6.26900       -6.02400       -0.83100
C         -5.84500       -6.80200        1.17100
C         -7.42200       -6.50500       -0.34400
N         -7.16400       -6.97900        0.87500
H         -1.50100       -5.86500       -1.27400
H         -3.55100       -5.64800       -2.07200
H         -3.66900       -5.27400        0.99600
H         -3.27500       -6.79700        0.03900
H         -5.34800       -7.09400        2.10300
H         -8.42000       -6.54300       -0.78600
H         -7.84300       -7.42200        1.54200
N         -5.01300       -3.02000       -0.87300
C         -5.21500       -1.56900       -1.02800
C         -6.06400       -1.24600       -2.23500
C         -7.42100       -1.83500       -2.23300
C         -8.10100       -1.34500       -3.52100
N         -7.33300       -1.81000       -4.68100
C         -5.77000       -0.88600        0.17400
O         -7.00800       -1.35100        0.60300
H         -5.75800       -3.55000       -0.48800
H         -4.22800       -1.11900       -1.24300
H         -5.54500       -1.46300       -3.18700
H         -6.19600       -0.13500       -2.21300
H         -8.09700       -1.58900       -1.43000
H         -7.43700       -2.94200       -2.33400
H         -9.08300       -1.82400       -3.58200
H         -8.15600       -0.23000       -3.49600
H         -7.99300       -1.90500       -5.52400
H         -6.90900       -2.77500       -4.46900
H         -6.53600       -1.12800       -4.91600
N         -4.85300       -0.53900        1.19300
C         -5.37700       -0.05800        2.41500
C         -4.43000        0.58400        3.37100
O         -5.07100        1.01500        4.48600
C         -6.09700       -1.18800        3.18000
C         -5.18700       -2.34400        3.45000
C         -6.01100       -3.42400        4.15600
C         -5.09600       -4.60100        4.42100
H         -4.15200       -1.27000        1.33900
H         -6.18400        0.67900        2.15200
H         -7.09300       -1.43700        2.82800
H         -6.30300       -0.77600        4.24500
H         -4.76300       -2.82000        2.54400
H         -4.45500       -2.03000        4.21100
H         -6.44000       -2.97600        5.06300
H         -6.80700       -3.71900        3.42600
H         -4.12000       -4.23100        4.77600
H         -4.93300       -5.13800        3.46700
H         -5.51900       -5.31000        5.14200
N         -3.58100        1.60300        2.79500
C         -4.27500        2.41400        1.82800
C         -3.26700        3.22400        1.04400
O         -3.61300        3.75200       -0.03100
C         -5.21700        3.43500        2.42400
C         -4.58400        4.45300        3.28200
C         -4.38800        4.35500        4.63700
C         -4.18100        5.62300        2.69000
C         -3.81800        5.41200        5.28700
C         -3.60600        6.69700        3.31900
C         -3.41400        6.57900        4.72500
O         -2.84200        7.65700        5.35000
H         -3.11800        2.18600        3.53400
H         -4.77500        1.76300        1.09900
H         -5.69100        3.94900        1.55300
H         -6.08000        2.98900        2.96900
H         -4.65900        3.49300        5.18600
H         -4.32400        5.75500        1.59900
H         -3.66600        5.30300        6.37000
H         -3.28900        7.61300        2.83500
H         -1.94700        7.60300        5.83200
N         -1.94000        3.44900        1.44000
C         -0.92700        4.13000        0.62200
C          0.34600        3.23100        0.62100
O         -0.16300        2.07300        0.01100
C         -0.67400        5.54500        0.99400
C          0.39300        6.16500        0.08100
N          0.57700        7.59700        0.49800
H         -1.68000        3.11100        2.37700
H         -1.32600        4.18100       -0.43400
H         -0.41900        5.75500        2.03100
H         -1.61100        6.11400        0.67700
H          1.36100        5.65500        0.18900
H          0.06900        6.16600       -0.96900
H          0.39300        8.20800       -0.36600
H          1.58500        7.71800        0.81800
H         -0.11400        7.80900        1.26200
N          0.78900        3.14100        1.89700
C          1.74300        2.46400        2.59700
C          3.17300        2.61200        2.39500
O          3.93100        2.41900        3.41300
C          1.47000        0.89700        2.52700
S          1.56900        0.29800        0.89700
H          0.51200        4.04900        2.41000
H          1.55300        2.58000        3.68700
H          0.46700        0.80700        2.96400
H          2.21000        0.46400        3.19500
N          3.90600        2.93900        1.23000
C          5.36300        2.89500        1.36000
C          5.91900        1.64200        1.91000
O          7.13600        1.62500        2.23000
C          5.85800        4.10700        2.07000
C          5.50700        5.40100        1.36000
C          7.32900        4.11300        2.37200
C          6.09600        5.46900       -0.02800
H          3.38200        3.18300        0.40000
H          5.72700        2.98000        0.27200
H          5.35400        4.21700        3.07300
H          5.92300        6.23000        1.95500
H          4.40500        5.50300        1.28100
H          7.55200        3.63200        3.35000
H          7.62500        5.17200        2.48700
H          7.95800        3.69200        1.54000
H          7.08800        4.96200       -0.10400
H          6.18900        6.49600       -0.39500
H          5.37400        4.93700       -0.69700
N          5.25600        0.40600        2.13200
C          5.96400       -0.76100        2.74300
C          6.40700       -1.59100        1.55300
O          7.40800       -2.31000        1.56200
C          5.05300       -1.53400        3.61200
C          4.48900       -0.84100        4.80300
C          3.38500       -1.70100        5.44000
N          2.84600       -1.06800        6.62500
C          1.58900       -1.65600        7.09500
N          1.09800       -0.97600        8.28000
N          1.11000       -2.56500        6.51300
H          4.29300        0.35100        1.83000
H          6.86800       -0.42600        3.24100
H          5.68800       -2.37600        4.04900
H          4.25100       -2.09500        3.07600
H          4.05500        0.14700        4.63700
H          5.26900       -0.67700        5.60800
H          2.55300       -1.68900        4.69200
H          3.71800       -2.73100        5.56500
H          3.28500       -0.26700        7.12100
H          1.07900        0.09100        8.29200
H          0.77700       -1.54800        9.09200
H          0.08500       -2.79500        7.15600
H          0.93200       -3.34100        5.86100
N          5.65000       -1.59200        0.33400
C          6.22600       -2.20000       -0.85500
C          5.81300       -1.30500       -1.94500
O          4.96100       -0.39200       -1.55200
C          6.13000       -3.63900       -1.04300
S          4.80100       -4.65300       -1.27000
H          4.73600       -1.14800        0.40000
H          7.37700       -2.02000       -0.74100
H          6.71700       -4.04700       -0.08400
H          6.98900       -3.87600       -1.80300
N          6.16500       -1.26500       -3.27200
C          5.53300       -0.22600       -4.10000
C          5.23100       -0.74900       -5.42700
O          5.92500       -1.75900       -5.81800
C          6.50400        0.95100       -4.19100
C          5.88700        2.04600       -4.96000
C          5.18600        2.99200       -4.13300
C          5.95700        2.21100       -6.31600
C          4.60400        4.04900       -4.79500
C          5.33800        3.31000       -6.88500
C          4.66700        4.22900       -6.17600
O          4.01300        5.36000       -6.64700
H          6.84600       -1.95300       -3.64100
H          4.65900        0.13300       -3.59200
H          6.80200        1.25900       -3.16500
H          7.47100        0.68100       -4.70600
H          5.13800        2.84000       -3.06700
H          6.50400        1.47000       -6.87800
H          4.07200        4.77000       -4.15700
H          5.38400        3.44500       -7.97700
H          3.59400        6.05400       -6.05000
N          4.26300       -0.29200       -6.34600
C          4.17200       -0.96800       -7.60900
C          3.43800       -0.29300       -8.66500
O          2.89800        0.81900       -8.46000
C          3.42500       -2.29500       -7.33300
H          3.65600        0.50700       -6.03800
H          5.20800       -1.31200       -7.87400
H          3.36300       -2.47300       -6.23500
H          3.98400       -3.16400       -7.75900
H          2.38700       -2.27500       -7.69400
N          3.36200       -0.95700       -9.94200
H          4.22000       -1.05700      -10.56200
H          2.44200       -1.34800      -10.27200
H          3.39000       -2.53900       -0.90400
H          1.32600       -1.16600       -1.21800
H         -0.72800       -2.03300       -0.28100
H          0.19800       -3.65100        1.22200
H          0.94400       -5.50900       -1.11600
H          2.40900       -3.89400        1.00300
H         -1.49400       -5.34900        0.87000
H         -2.14600       -3.57800        1.73100
H         -6.06500        0.16400       -0.26200
H         -7.70700       -0.64400        0.69000
H         -3.68100       -0.25000        3.63700
H         -6.04100        1.15200        4.43300
H          1.04100        3.75600       -0.06100
H         -1.11200        1.95600        0.18100
