223
6y13_stapledHelix_conf49.pdb
C         -2.19900        3.89100       -1.00300
C         -0.83500        3.86100       -0.54000
C         -0.42900        4.57600        0.72800
C          0.98500        5.05000        0.44100
C          1.60600        4.57200       -0.81900
C          1.26400        3.20700       -1.33900
C         -0.01200        2.63900       -0.64200
C          0.51700        1.99900        0.60800
C          3.15000        4.50900       -0.71300
C         -1.43200        5.59000        1.13200
H         -2.48200        3.00800       -1.60400
H         -2.35300        4.72500       -1.80700
H         -2.97400        4.20000       -0.27900
H          0.90000        6.17200        0.35900
H          2.04800        2.51700       -1.12800
H         -0.20700        1.10200        0.74300
H          0.41100        2.49900        1.55200
H         -0.86600        6.54700        1.37600
O          3.67500        5.78800       -0.74300
H         -2.08000        5.92800        0.28200
N          3.64900        3.64000       -1.78400
C          3.59100        4.13300       -3.09500
C          3.18700        3.06800       -4.07400
O          3.15000        3.37200       -5.27700
C          4.98600        4.51800       -3.58000
C          5.68900        5.52200       -2.81400
N          5.63200        6.84800       -2.98200
C          6.61800        5.33900       -1.77400
C          6.46000        7.45200       -2.11300
N          7.07400        6.52700       -1.36200
H          4.58600        3.24900       -1.53200
H          2.92700        5.03100       -3.22100
H          5.54200        3.56400       -3.69000
H          4.89400        4.90900       -4.63300
H          6.91300        4.39500       -1.37700
H          6.60800        8.51700       -2.02900
H          7.76800        6.77800       -0.61900
N          2.83900        1.73900       -3.77300
C          2.35600        0.72800       -4.68800
C          2.75800       -0.60900       -4.19100
C          4.26600       -0.77400       -4.08200
C          4.92700       -0.57900       -5.43100
N          6.36800       -0.77500       -5.22500
C          0.84500        0.81800       -4.85800
O          0.20400        0.75900       -3.63400
H          2.97700        1.44800       -2.79800
H          2.78400        0.90600       -5.72400
H          2.35800       -1.45600       -4.78500
H          2.39200       -0.67200       -3.12000
H          4.42100       -1.84100       -3.81200
H          4.70500       -0.16200       -3.30100
H          4.54600       -1.33100       -6.12000
H          4.82300        0.47000       -5.78100
H          6.50400       -1.61600       -4.57200
H          6.78400        0.09300       -4.78300
H          6.83400       -0.98400       -6.16200
N          0.30700       -0.34400       -5.60500
C         -1.05500       -0.14100       -5.86400
C         -2.17000       -0.55400       -5.00300
O         -3.32400       -0.11500       -5.74100
C         -1.40900       -0.51900       -7.27900
C         -1.11800       -1.92700       -7.58300
C          0.28500       -2.40100       -7.55900
C          1.18000       -1.65900       -8.53800
H          0.37200       -1.11100       -4.86600
H         -1.21800        1.04700       -5.92000
H         -0.98200        0.20200       -8.01800
H         -2.52800       -0.37500       -7.44100
H         -1.68900       -2.63900       -6.89700
H         -1.54100       -2.23000       -8.59800
H          0.80300       -2.44500       -6.60800
H          0.32800       -3.48200       -7.93700
H          1.52100       -0.72000       -8.09000
H          0.73800       -1.58700       -9.54000
H          2.09900       -2.31300       -8.65500
N         -2.29300       -0.24900       -3.64300
C         -3.67900       -0.40800       -3.11700
C         -3.68600        0.19400       -1.78700
O         -2.59500        0.46900       -1.25500
C         -4.13000       -1.80200       -3.13300
C         -5.51000       -2.08100       -2.65200
C         -5.81500       -2.53900       -1.38800
C         -6.52500       -1.82000       -3.57000
C         -7.17100       -2.72100       -1.08800
C         -7.85600       -2.00500       -3.25600
C         -8.16400       -2.45900       -2.00000
O         -9.52500       -2.63500       -1.72000
H         -1.77700       -0.97500       -3.04500
H         -4.27100        0.28200       -3.76900
H         -3.95400       -2.32700       -4.12400
H         -3.48300       -2.43500       -2.45200
H         -5.02500       -2.73400       -0.68700
H         -6.32400       -1.46000       -4.57600
H         -7.47600       -3.07700       -0.10800
H         -8.65200       -1.79900       -3.97300
H        -10.14000       -1.80900       -1.80900
N         -4.81200        0.52600       -0.97400
C         -4.71700        1.34300        0.22800
C         -4.11700        0.70800        1.41800
O         -4.95700       -0.38900        1.76000
C         -6.08400        1.93200        0.48600
C         -6.59100        2.73800       -0.65400
N         -5.75500        3.87900       -1.02700
H         -5.71000        0.18000       -1.28300
H         -4.04200        2.15900       -0.05100
H         -6.09300        2.61000        1.38200
H         -6.75100        1.05300        0.70500
H         -6.70700        2.16000       -1.59700
H         -7.57200        3.17600       -0.32800
H         -4.96400        3.54200       -1.67500
H         -5.38100        4.37600       -0.17800
H         -6.36500        4.57000       -1.59600
N         -3.85000        1.44100        2.54700
C         -2.84300        2.43600        2.69000
C         -2.25200        2.28700        4.10600
O         -2.73000        1.43500        4.85900
C         -3.42000        3.81200        2.57100
S         -2.38800        5.22700        2.60400
H         -4.37500        1.22800        3.42300
H         -2.01200        2.25900        2.02300
H         -4.11500        3.89100        3.48600
H         -4.03900        3.81600        1.66700
N         -1.19500        3.06800        4.58500
C         -0.52100        3.04100        5.85300
C          0.73900        2.25800        5.79500
O          1.74300        2.44800        6.48400
C         -1.33600        2.80500        7.06900
C         -2.35900        3.82200        7.42900
C         -0.48200        2.59100        8.31300
C         -3.44700        4.12600        6.47800
H         -0.85000        3.77500        3.89600
H         -0.17500        4.13000        5.99800
H         -1.88700        1.83300        6.93000
H         -1.79000        4.78400        7.65400
H         -2.79900        3.53600        8.42800
H         -0.03100        3.52400        8.69700
H         -1.17800        2.22400        9.10400
H          0.25300        1.78600        8.17800
H         -4.08500        3.25800        6.31600
H         -3.12200        4.58500        5.53500
H         -4.06000        4.95500        6.98200
N          0.79500        1.18200        4.87800
C          1.97900        0.43500        4.48700
C          1.57900       -0.22800        3.23000
O          0.33000       -0.14900        2.98400
C          2.51600       -0.50700        5.50400
C          1.64600       -1.60800        5.99400
C          2.50800       -2.38500        6.99500
N          1.74000       -3.46500        7.53600
C          0.62800       -3.29800        8.39400
N         -0.01900       -4.51500        8.83000
N          0.17000       -2.17300        8.79800
H         -0.10700        0.91000        4.46700
H          2.83700        1.15400        4.31600
H          3.38900       -1.01700        4.99600
H          3.00300        0.06500        6.32900
H          1.48500       -2.38400        5.16900
H          0.65200       -1.36600        6.32500
H          3.33800       -2.78900        6.39000
H          2.88700       -1.68900        7.78700
H          2.01900       -4.45100        7.26900
H         -1.05300       -4.60700        8.81000
H          0.63300       -5.25800        9.16200
H          0.53700       -1.23500        8.56500
H         -0.65200       -2.19700        9.43500
N          2.33300       -0.91400        2.28200
C          1.56400       -1.40100        1.08200
C          1.93500       -2.81200        0.86200
O          3.00400       -3.16500        1.50700
C          2.07400       -0.51900       -0.08000
S          2.11500        1.18400        0.43000
H          3.31300       -1.06000        2.41600
H          0.51700       -1.30900        1.23100
H          3.02300       -0.94700       -0.42200
H          1.33500       -0.64500       -0.88300
N          1.23200       -3.73600        0.05000
C          1.59300       -5.11800       -0.11600
C          2.23300       -5.78300        1.04600
O          3.01000       -6.76000        0.78800
C          2.03700       -5.56600       -1.45100
C          0.96400       -5.39200       -2.49000
C          0.08500       -6.48300       -2.58300
C          0.82900       -4.29600       -3.26800
C         -0.96300       -6.48400       -3.48000
C         -0.23100       -4.28200       -4.18200
C         -1.10500       -5.37300       -4.27200
O         -2.16200       -5.36100       -5.18300
H          0.39300       -3.37000       -0.45100
H          0.52200       -5.66800       -0.01900
H          2.28400       -6.64600       -1.41800
H          2.97500       -5.07100       -1.79700
H          0.21000       -7.36000       -1.95300
H          1.51000       -3.49000       -3.18300
H         -1.65100       -7.31500       -3.56100
H         -0.41800       -3.44800       -4.83600
H         -2.52600       -6.20500       -5.61000
N          2.05100       -5.43300        2.38900
C          2.71100       -6.10300        3.50400
C          1.68800       -6.66600        4.40200
O          2.03800       -7.30400        5.45000
C          3.64400       -5.14700        4.22900
H          1.37000       -4.66600        2.68800
H          3.29200       -6.93300        3.05900
H          3.30700       -4.12200        4.05100
H          3.57100       -5.41600        5.32500
H          4.67600       -5.37500        3.91900
N          0.29600       -6.51900        4.13200
H         -0.20200       -7.02800        3.36800
H         -0.23500       -5.85100        4.76000
H         -0.32100        4.58500       -1.33600
H         -0.33300        3.92700        1.61900
H          1.67400        4.85700        1.28800
H          1.46600        5.31900       -1.66700
H          1.02000        3.28900       -2.40800
H         -0.44600        1.91500       -1.29000
H          3.43400        4.04000        0.24300
H          3.05200        6.42700       -1.17200
H          0.62600        1.77600       -5.33100
H         -0.30300        1.61500       -3.49200
H         -2.25100       -1.68400       -5.10100
H         -3.90500       -0.84300       -5.99200
H         -3.12900        0.27800        1.05600
H         -5.26900       -0.29100        2.69100
