223
6y13_stapledHelix_conf34.pdb
C         -0.63200        0.55200        0.52000
C         -1.65600        1.54000        0.04700
C         -2.32900        1.21200       -1.23100
C         -3.00400        2.47900       -1.72500
C         -3.58100        3.34100       -0.65700
C         -3.82200        2.61900        0.63500
C         -2.65900        1.85700        1.13800
C         -2.98500        0.69400        2.02500
C         -2.89500        4.67400       -0.54200
C         -1.29300        0.86200       -2.28300
H         -0.90200       -0.47900        0.34600
H         -0.39600        0.71200        1.61000
H          0.36000        0.73400        0.02700
H         -2.23300        3.09300       -2.27800
H         -4.67000        1.89700        0.45400
H         -2.80000        0.96400        3.10300
H         -2.23200       -0.10600        1.83600
H         -1.07300        1.75800       -2.88100
O         -3.31200        5.52400       -1.61700
H         -0.33600        0.52800       -1.82000
N         -3.24100        5.43400        0.64300
C         -2.51300        6.68600        0.62200
C         -1.07300        6.59000        0.90700
O         -0.35400        7.58900        0.73000
C         -3.19600        7.55800        1.69000
C         -2.54300        8.87700        1.77300
N         -2.84400        9.97600        1.07800
C         -1.47400        9.25000        2.59800
C         -2.04200       10.98500        1.42300
N         -1.19300       10.54900        2.35800
H         -3.02200        4.98500        1.53300
H         -2.61900        7.17200       -0.37900
H         -2.94400        7.03000        2.64800
H         -4.26000        7.57500        1.49000
H         -0.94200        8.63800        3.31600
H         -2.06500       11.97600        1.02200
H         -0.44800       11.08800        2.83300
N         -0.39000        5.43900        1.38400
C          1.09200        5.46100        1.60700
C          1.25700        5.30900        3.08200
C          2.63200        5.28700        3.62100
C          3.46000        6.51000        3.36300
N          4.78700        6.28900        3.99800
C          1.66600        4.41900        0.73900
O          1.22800        3.12200        1.07800
H         -0.95500        4.62400        1.56100
H          1.47700        6.45000        1.32900
H          0.73100        4.38900        3.42500
H          0.76100        6.22300        3.53400
H          3.23600        4.38100        3.40100
H          2.52000        5.24400        4.75400
H          3.61500        6.68800        2.28300
H          2.97900        7.39000        3.84600
H          5.54000        6.28800        3.26100
H          4.78000        5.37100        4.53200
H          4.95800        7.09300        4.68800
N          3.04900        4.45400        0.37000
C          3.25700        3.40800       -0.70200
C          4.14600        2.31400       -0.25900
O          3.54200        1.91100        1.02200
C          3.78400        4.24400       -1.84900
C          5.06600        4.96400       -1.47400
C          5.49600        5.77900       -2.67500
C          4.43800        6.79200       -3.04900
H          3.72400        4.18200        1.09200
H          2.25600        3.06700       -0.92900
H          3.00600        5.05300       -1.97900
H          3.93100        3.76900       -2.79400
H          4.86400        5.65600       -0.63900
H          5.87400        4.28100       -1.21400
H          6.48000        6.25500       -2.50300
H          5.55200        5.05400       -3.52200
H          3.72200        6.37000       -3.80700
H          4.94800        7.63900       -3.57900
H          3.82500        7.11000       -2.19500
N          4.21100        1.10800       -0.95100
C          4.47000        0.82700       -2.26900
C          3.40200        1.07900       -3.27300
O          2.31900        1.63600       -3.03900
C          5.00300       -0.61400       -2.41300
C          6.25800       -0.75300       -1.65600
C          7.43300       -0.45900       -2.36800
C          6.35500       -1.16200       -0.35400
C          8.66200       -0.57900       -1.76800
C          7.60600       -1.27200        0.21900
C          8.76300       -0.99000       -0.45500
O         10.03300       -1.08800        0.08100
H          3.89200        0.25900       -0.37400
H          5.34400        1.49500       -2.60400
H          4.23100       -1.30300       -2.03600
H          5.19100       -0.86500       -3.47600
H          7.37200       -0.12800       -3.42100
H          5.48700       -1.39700        0.22000
H          9.52700       -0.34300       -2.37100
H          7.65600       -1.60200        1.25200
H         10.39700       -0.37500        0.71400
N          3.53400        0.67700       -4.65200
C          2.49200        1.02200       -5.65000
C          1.92700       -0.20600       -6.30900
O          0.99800        0.10800       -7.28100
C          3.28500        1.78800       -6.68800
C          2.56100        2.33200       -7.84800
N          1.52800        3.32500       -7.44900
H          4.37100        0.16400       -4.87800
H          1.69800        1.60300       -5.19400
H          4.13400        1.16600       -7.07900
H          3.82800        2.65800       -6.20600
H          3.27700        2.96700       -8.46300
H          2.16300        1.61700       -8.57400
H          1.13400        3.05300       -6.50500
H          0.78500        3.35900       -8.19400
H          1.99900        4.29300       -7.36100
N          1.59300       -1.19600       -5.42500
C          0.64000       -1.13000       -4.37200
C          0.62600       -2.55200       -3.85300
O          1.07800       -3.45500       -4.56800
C         -0.69400       -0.63400       -4.75200
S         -1.81900       -0.48600       -3.36500
H          2.39200       -1.79200       -5.16700
H          1.03200       -0.54500       -3.54500
H         -1.22400       -1.25600       -5.50800
H         -0.56800        0.41800       -5.10700
N          0.13500       -2.94300       -2.58000
C          0.11500       -4.31300       -2.10200
C         -1.13200       -4.67600       -1.39400
O         -1.25900       -5.75900       -0.82800
C          1.34300       -4.64500       -1.33200
C          1.64300       -3.85700       -0.11700
C          2.54300       -4.65600       -2.23300
C          1.83600       -2.39100       -0.29500
H         -0.21400       -2.17200       -2.00000
H          0.17300       -4.96100       -3.02400
H          1.21700       -5.71000       -0.99200
H          0.95700       -4.04500        0.75000
H          2.63100       -4.27300        0.26800
H          3.40600       -5.06400       -1.62100
H          2.41700       -5.30200       -3.11300
H          2.89700       -3.67200       -2.55800
H          2.14300       -2.14100       -1.32100
H          0.99400       -1.77500        0.03900
H          2.68900       -2.07600        0.37400
N         -2.22800       -3.78500       -1.34100
C         -3.48100       -3.97800       -0.65800
C         -3.28400       -3.26300        0.65100
O         -2.18200       -2.76000        0.85200
C         -3.93100       -5.35400       -0.41600
C         -4.19300       -6.22900       -1.58500
C         -5.26500       -5.78900       -2.53800
N         -4.99400       -4.60100       -3.26500
C         -6.03100       -4.10900       -4.12500
N         -5.82100       -2.91600       -4.88000
N         -7.16200       -4.69100       -4.25700
H         -2.09800       -2.90700       -1.85500
H         -4.26700       -3.37100       -1.18600
H         -4.94700       -5.26200        0.10700
H         -3.33100       -5.88500        0.37700
H         -3.30700       -6.44200       -2.24200
H         -4.50200       -7.25400       -1.16600
H         -5.39000       -6.61600       -3.30300
H         -6.25800       -5.74000       -2.01000
H         -4.11800       -4.04300       -3.27800
H         -5.59700       -1.98900       -4.41300
H         -5.90200       -2.99700       -5.92500
H         -7.33000       -5.57700       -3.70100
H         -7.90900       -4.34400       -4.87200
N         -4.26000       -3.12600        1.66300
C         -3.93700       -2.38100        2.86500
C         -3.40500       -3.30800        3.85400
O         -3.20900       -4.52000        3.48600
C         -4.79800       -1.26600        3.22300
S         -4.67100        0.08500        1.95400
H         -5.15800       -3.58100        1.46500
H         -2.92100       -1.81400        2.60000
H         -5.88100       -1.58300        3.16000
H         -4.65600       -0.78200        4.17700
N         -3.07300       -3.00300        5.19300
C         -2.48800       -4.04300        6.08700
C         -3.51700       -4.73300        6.86100
O         -4.72600       -4.33700        6.91300
C         -1.33000       -3.45200        6.79700
C         -0.58600       -4.27900        7.73700
C         -0.93100       -4.23900        9.09500
C          0.48100       -5.07300        7.34700
C         -0.18500       -4.99000        9.96400
C          1.22600       -5.82700        8.22700
C          0.86700       -5.76600        9.55200
O          1.61800       -6.52300       10.45200
H         -3.24200       -2.04000        5.54300
H         -2.09900       -4.82600        5.36000
H         -0.59100       -3.09500        6.01600
H         -1.66500       -2.53400        7.38700
H         -1.75200       -3.63800        9.39400
H          0.76400       -5.12900        6.29000
H         -0.40700       -5.00100       11.03500
H          2.05300       -6.44500        7.91000
H          2.10200       -6.08600       11.24400
N         -3.26800       -5.93200        7.63200
C         -4.34300       -6.55100        8.34100
C         -3.96900       -7.08000        9.65300
O         -4.90200       -7.62200       10.34600
C         -4.75100       -7.75700        7.45000
H         -2.29700       -6.32100        7.64300
H         -5.20800       -5.87100        8.41400
H         -5.38900       -7.40300        6.64400
H         -5.22400       -8.48800        8.12900
H         -3.80000       -8.16000        7.03900
N         -2.67400       -7.04900       10.22400
H         -1.88300       -7.29800        9.58700
H         -2.59600       -6.78800       11.21600
H         -1.08200        2.48800       -0.14400
H         -3.09300        0.44600       -1.11600
H         -3.72400        2.17700       -2.51300
H         -4.62500        3.59100       -1.02300
H         -4.22700        3.35000        1.36200
H         -2.09600        2.57600        1.81900
H         -1.79800        4.64300       -0.65800
H         -2.69700        5.42700       -2.38100
H          1.12100        4.56500       -0.28100
H          1.28500        3.05000        2.05100
H          5.15500        2.62800        0.05900
H          3.03000        1.08400        0.85800
H          2.81400       -0.59200       -6.93000
H          0.46300        0.86700       -7.08100
