223
6y13_stapledHelix_conf10.pdb
C         -2.90900        0.40600        4.31900
C         -1.59800        0.13400        3.57600
C         -0.92900        1.46500        3.36500
C          0.51700        1.36600        3.75000
C          1.19500        0.15600        3.15700
C          0.61600       -1.06100        3.77700
C         -0.74700       -0.82300        4.36800
C         -1.44400       -2.03600        4.81500
C          2.71600        0.33100        3.35700
C         -1.15200        2.07700        2.02500
H         -2.76400        0.53700        5.40700
H         -3.63800       -0.40900        4.15500
H         -3.39000        1.33000        3.88200
H          1.07400        2.31600        3.49800
H          0.48600       -1.81100        2.97600
H         -2.45500       -1.69000        5.22300
H         -0.91700       -2.39000        5.76400
H         -1.78800        3.01200        2.09800
O          3.10500       -0.93300        3.91600
H         -0.20400        2.45400        1.57200
N          2.90700        1.38000        4.25200
C          4.05300        2.14900        4.38600
C          4.28300        3.19000        3.33300
O          5.18300        4.05300        3.41300
C          5.32900        1.37900        4.67100
C          6.52200        2.24800        4.81700
N          7.41300        2.68800        3.91500
C          6.90400        2.77200        6.04600
C          8.30400        3.45400        4.57200
N          8.00600        3.51600        5.88800
H          2.56900        1.06700        5.21100
H          3.91500        2.78200        5.32300
H          5.49900        0.59700        3.87700
H          5.24000        0.78500        5.60200
H          6.41600        2.62500        6.99900
H          9.17500        3.98900        4.18000
H          8.51400        4.03200        6.64500
N          3.50200        3.28700        2.14500
C          3.66400        4.41300        1.19500
C          4.62400        4.04400        0.09900
C          4.26200        2.87700       -0.74200
C          5.37300        2.64600       -1.78800
N          4.97600        1.48300       -2.59700
C          2.30800        4.82000        0.68200
O          1.69100        3.82200       -0.01900
H          2.83400        2.55600        1.97000
H          4.12500        5.29300        1.69300
H          5.60400        3.83500        0.57300
H          4.70300        4.93300       -0.55600
H          3.37200        3.13200       -1.39200
H          4.17000        1.92000       -0.22600
H          5.46100        3.52600       -2.42100
H          6.31500        2.38800       -1.26400
H          5.11400        1.73200       -3.63300
H          3.96500        1.22500       -2.42900
H          5.60400        0.64900       -2.35700
N          2.30200        6.12200        0.10000
C          1.01400        6.42000       -0.47300
C          0.97100        5.98400       -1.91200
O          1.96500        6.72100       -2.61600
C          0.62900        7.84500       -0.23500
C          0.56300        8.10100        1.26700
C          0.15800        9.52500        1.57500
C         -1.20500        9.85100        1.01400
H          3.09700        6.37700       -0.48600
H          0.22400        5.78500        0.04600
H         -0.36300        8.03000       -0.69700
H          1.32600        8.56000       -0.67400
H         -0.21100        7.43500        1.74200
H          1.52000        7.86600        1.75200
H          0.12700        9.66700        2.67200
H          0.87600       10.25800        1.15500
H         -1.76900        8.87600        0.93900
H         -1.17000       10.26500       -0.00200
H         -1.81100       10.46700        1.72300
N         -0.27100        6.15200       -2.56000
C         -1.37500        5.35600       -2.15900
C         -1.35000        3.94300       -2.60600
O         -2.21900        3.12400       -2.24500
C         -2.62600        5.99300       -2.77900
C         -3.87300        5.26700       -2.46700
C         -4.39100        4.28200       -3.32000
C         -4.61400        5.51000       -1.31100
C         -5.55400        3.60300       -3.03100
C         -5.77700        4.82100       -1.03500
C         -6.26600        3.85100       -1.89700
O         -7.43100        3.13900       -1.65800
H         -0.57600        7.14100       -2.67100
H         -1.55100        5.41200       -1.05400
H         -2.47400        5.91000       -3.88700
H         -2.69900        7.06900       -2.50200
H         -3.86900        4.04300       -4.23500
H         -4.30100        6.24800       -0.58900
H         -5.90800        2.84600       -3.73100
H         -6.36100        5.00100       -0.13700
H         -8.01500        3.26100       -0.85500
N         -0.36100        3.39800       -3.46800
C         -0.30300        2.05900       -3.96800
C          0.43500        1.09600       -3.02000
O          0.47900       -0.09700       -3.78800
C          0.11600        1.92600       -5.38800
C         -0.87800        2.68600       -6.25500
N         -0.41700        2.51300       -7.64100
H          0.36600        4.05800       -3.76600
H         -1.38600        1.68000       -3.86000
H          0.10700        0.85000       -5.64600
H          1.13900        2.30400       -5.51300
H         -1.85500        2.18200       -6.21200
H         -0.92200        3.74700       -5.99700
H         -1.26100        2.56400       -8.31000
H          0.07000        1.56700       -7.73500
H          0.27200        3.28700       -7.89000
N         -0.38700        0.81400       -1.88200
C          0.18100        0.09100       -0.82400
C          0.61000       -1.28200       -1.20000
O          0.39000       -1.87300       -2.25600
C         -1.01900       -0.28500        0.12900
S         -1.92000        1.04800        0.78600
H         -1.34800        0.49500       -2.14600
H          0.94600        0.62500       -0.24500
H         -0.55500       -1.01600        0.82300
H         -1.66500       -0.87400       -0.56100
N          1.39400       -2.09800       -0.26400
C          1.73300       -3.47700       -0.63700
C          1.04000       -4.41000        0.32900
O          0.64000       -3.99900        1.41700
C          3.22200       -3.72700       -0.61700
C          3.81800       -3.49000        0.75400
C          3.92900       -2.93100       -1.68500
C          5.31300       -3.77300        0.64900
H          1.64500       -1.62400        0.58300
H          1.36200       -3.73200       -1.63900
H          3.36100       -4.80200       -0.84000
H          3.67300       -2.44900        1.10500
H          3.40600       -4.24100        1.43900
H          4.63700       -3.59300       -2.26600
H          4.61600       -2.16600       -1.23500
H          3.23600       -2.49900       -2.43000
H          5.88000       -2.89900        0.32300
H          5.48900       -4.61000       -0.05900
H          5.68800       -4.15600        1.64300
N          0.81600       -5.78400        0.03900
C          0.05800       -6.66700        0.94500
C         -1.18700       -6.09300        1.44700
O         -1.87200       -6.55800        2.39400
C          0.92100       -7.42400        1.85900
C          0.23100       -8.35900        2.81500
C         -0.58300       -9.39900        2.07900
N         -1.26600      -10.29100        3.00300
C         -2.09800      -11.33000        2.49600
N         -2.79200      -12.23900        3.35300
N         -2.21600      -11.43900        1.23400
H          1.22700       -6.10500       -0.84400
H         -0.33900       -7.44700        0.18100
H          1.54700       -6.74900        2.52300
H          1.60400       -8.06800        1.24600
H          1.05300       -8.86800        3.40700
H         -0.42500       -7.80600        3.49400
H         -1.26500       -8.98500        1.34700
H          0.09900      -10.08700        1.48900
H         -1.17100      -10.20500        4.03800
H         -3.44800      -11.86900        4.09400
H         -2.64600      -13.28000        3.24300
H         -1.73700      -10.81400        0.55100
H         -2.82200      -12.18900        0.81200
N         -1.81900       -4.89500        0.90600
C         -3.02300       -4.35300        1.49900
C         -3.98200       -4.04600        0.42800
O         -5.13900       -3.67400        0.77600
C         -2.73800       -3.11600        2.35300
S         -1.64800       -3.40500        3.71600
H         -1.37900       -4.51900        0.08300
H         -3.49700       -5.06300        2.20700
H         -2.37100       -2.36600        1.59400
H         -3.70000       -2.72100        2.73000
N         -3.73000       -4.12700       -0.96000
C         -4.75700       -3.79900       -1.92600
C         -4.79200       -4.84500       -2.96200
O         -5.67800       -4.72000       -3.87600
C         -4.41400       -2.43900       -2.51000
C         -5.34800       -1.94800       -3.51500
C         -6.47300       -1.20000       -3.20900
C         -5.11600       -2.22000       -4.86800
C         -7.32800       -0.74500       -4.18700
C         -5.97200       -1.76400       -5.85500
C         -7.10500       -1.01100       -5.53100
O         -7.94400       -0.56600       -6.53700
H         -2.79900       -4.41900       -1.31000
H         -5.70600       -3.67300       -1.38300
H         -3.37800       -2.37800       -2.84500
H         -4.47900       -1.72900       -1.64000
H         -6.70100       -0.96200       -2.15700
H         -4.26200       -2.79400       -5.19600
H         -8.20700       -0.15900       -3.96700
H         -5.76900       -1.99200       -6.89800
H         -8.11100       -1.11000       -7.36400
N         -3.95300       -5.95800       -3.04600
C         -4.02100       -6.97000       -4.09600
C         -4.13100       -8.32700       -3.53400
O         -4.16000       -8.60400       -2.31200
C         -2.71400       -6.87800       -4.89000
H         -3.22600       -6.09700       -2.32700
H         -4.83500       -6.73800       -4.81000
H         -1.93800       -6.39500       -4.26300
H         -2.86400       -6.31400       -5.83100
H         -2.38000       -7.90000       -5.12200
N         -4.21100       -9.41500       -4.44500
H         -3.88100       -9.35900       -5.41600
H         -4.62200      -10.34700       -4.15100
H         -1.88600       -0.34600        2.63100
H         -1.36300        2.21200        4.11000
H          0.58100        1.33400        4.85500
H          1.08100        0.18100        2.05900
H          1.24700       -1.46200        4.60000
H         -0.51800       -0.25100        5.34500
H          3.26700        0.34700        2.40200
H          3.71400       -0.79000        4.67800
H          1.70500        4.98700        1.66100
H          0.73000        3.85600        0.00300
H          1.33300        4.95900       -1.95300
H          1.53100        7.57200       -2.91600
H          1.40000        1.49100       -2.74700
H          1.33100       -0.09900       -4.29500
