223
6y13_stapledHelix_conf14.pdb
C         -2.48100        0.07900        4.77500
C         -2.77800       -0.91800        3.68600
C         -2.50500       -2.29500        4.18300
C         -2.40300       -3.17600        2.92800
C         -3.59800       -2.89900        2.02800
C         -4.72700       -2.22100        2.75200
C         -4.24400       -0.88900        3.28900
C         -4.56600        0.27000        2.46200
C         -4.01500       -4.27200        1.45900
C         -1.43200       -2.56100        5.14300
H         -2.86200       -0.27500        5.76100
H         -3.03000        1.03400        4.56400
H         -1.40700        0.30900        4.79400
H         -2.40100       -4.20600        3.31300
H         -5.52600       -2.04700        1.98700
H         -5.23500        1.01500        2.99400
H         -5.16300       -0.04800        1.56900
H         -1.51800       -1.78400        5.95900
O         -4.76300       -4.12700        0.32000
H         -1.67400       -3.55600        5.64800
N         -2.89000       -5.09100        1.44900
C         -2.34400       -5.66700        0.25900
C         -2.12900       -4.59600       -0.80200
O         -2.64400       -3.54000       -0.90600
C         -3.29300       -6.75800       -0.25900
C         -2.76700       -7.46100       -1.44000
N         -1.99500       -8.64100       -1.17800
C         -2.76000       -7.40400       -2.72400
C         -1.62000       -9.13800       -2.36900
N         -2.11900       -8.32400       -3.41500
H         -3.12600       -5.97800        2.02900
H         -1.39900       -6.17700        0.51100
H         -4.17500       -6.15600       -0.64800
H         -3.63900       -7.39000        0.56800
H         -3.28300       -6.57800       -3.31400
H         -1.03400      -10.03000       -2.49600
H         -1.94400       -8.52700       -4.40300
N         -1.14900       -4.92900       -1.84300
C         -0.76600       -4.05200       -2.89800
C         -1.60800       -4.10400       -4.14100
C         -3.03200       -3.72200       -4.05600
C         -3.57800       -3.87200       -5.48800
N         -5.00400       -3.55600       -5.53800
C         -0.34900       -2.65800       -2.56400
O         -1.20700       -1.81700       -1.95300
H         -0.75300       -5.85700       -1.75000
H          0.22600       -4.49700       -3.26000
H         -1.59900       -5.18700       -4.52300
H         -1.14800       -3.57700       -4.99000
H         -3.14500       -2.60400       -3.87300
H         -3.70200       -4.24200       -3.40100
H         -3.01800       -3.19200       -6.17100
H         -3.42000       -4.88300       -5.88900
H         -5.47400       -3.96400       -4.65200
H         -5.43700       -4.04500       -6.39500
H         -5.17200       -2.52300       -5.60600
N          0.92000       -2.52200       -1.91100
C          2.06500       -2.84400       -2.62400
C          2.89500       -3.86900       -1.89600
O          2.24700       -5.07600       -1.66000
C          2.95200       -1.78400       -3.18000
C          2.43100       -0.78300       -4.11600
C          1.46100        0.23000       -3.62500
C          1.10000        1.09900       -4.85200
H          0.82600       -2.68500       -0.91800
H          1.75700       -3.42600       -3.59600
H          3.80600       -2.30600       -3.76600
H          3.52800       -1.23700       -2.39000
H          3.34600       -0.24100       -4.54000
H          1.99400       -1.22900       -5.05700
H          0.53300       -0.09700       -3.20100
H          2.00600        0.94400       -2.93400
H          0.88300        2.13100       -4.53900
H          0.25200        0.56900       -5.34100
H          1.95500        1.00800       -5.54600
N          3.49700       -3.49500       -0.63200
C          4.07100       -4.74100       -0.14300
C          4.51500       -4.72200        1.27200
O          4.98300       -5.70800        1.85700
C          5.31800       -5.01700       -0.99700
C          6.37300       -4.02900       -0.83500
C          7.36700       -4.24500        0.02900
C          6.31500       -2.76100       -1.63300
C          8.42600       -3.36800        0.28500
C          7.41000       -2.00100       -1.28500
C          8.40600       -2.22700       -0.42100
O          9.48200       -1.32500       -0.19500
H          2.75200       -3.20600        0.02100
H          3.42200       -5.60700       -0.27100
H          5.10600       -5.29600       -2.02600
H          5.70200       -5.99600       -0.54000
H          7.34500       -5.20400        0.58000
H          5.54100       -2.60000       -2.28200
H          9.13500       -3.68600        1.02600
H          7.45000       -1.02600       -1.83600
H         10.31600       -1.48600       -0.75800
N          4.45000       -3.53300        2.11100
C          4.88300       -3.68600        3.52100
C          4.44900       -2.62300        4.43300
O          4.85000       -2.85800        5.79100
C          6.43500       -3.52800        3.38200
C          7.15200       -3.70900        4.66600
N          6.95000       -5.06200        5.22000
H          4.14500       -2.72100        1.65800
H          4.80200       -4.72000        3.87800
H          6.61200       -2.52400        2.94300
H          6.70000       -4.35100        2.70600
H          8.29500       -3.62400        4.46100
H          6.96900       -2.94700        5.43100
H          6.23700       -5.07300        5.99200
H          7.90700       -5.40700        5.59200
H          6.66200       -5.73400        4.42300
N          3.07800       -2.30800        4.50400
C          2.48500       -1.46900        3.54800
C          3.17000       -0.13700        3.42500
O          4.08000        0.28600        4.12500
C          1.05700       -1.17200        4.11500
S          0.22700       -2.70000        4.52000
H          2.45900       -3.18400        4.59600
H          2.32600       -1.91700        2.59400
H          0.46500       -0.54900        3.47900
H          1.25700       -0.63700        5.09100
N          2.70900        0.70200        2.37700
C          3.27900        1.98000        1.98000
C          2.35000        3.02100        1.94000
O          1.28500        2.56800        2.83000
C          4.19500        1.85900        0.78100
C          3.55700        1.32800       -0.46000
C          5.37700        0.90700        1.07500
C          4.66400        1.32200       -1.53200
H          1.88000        0.38300        1.87800
H          4.02700        2.16600        2.83400
H          4.69400        2.81300        0.53800
H          2.82100        2.07200       -0.80000
H          3.18400        0.30800       -0.40300
H          5.93800        0.81500        0.13200
H          5.03100       -0.10700        1.34300
H          6.02200        1.37300        1.82800
H          5.12700        0.33000       -1.65800
H          5.38100        2.14400       -1.31400
H          4.22400        1.57300       -2.51500
N          1.87700        4.22100        1.53600
C          0.60400        4.87500        1.95200
C         -0.39200        4.28800        1.02800
O          0.00200        3.81400       -0.11000
C          0.72200        6.33900        1.72400
C         -0.50800        7.10000        2.09100
C         -0.88700        7.10600        3.52700
N         -2.13400        7.72400        3.84400
C         -2.65000        7.97300        5.11300
N         -3.95100        8.56800        5.30000
N         -1.97600        7.64400        6.12800
H          2.43000        4.79200        0.86500
H          0.27000        4.57700        2.94900
H          0.76900        6.45100        0.58500
H          1.68100        6.76800        2.03500
H         -0.35800        8.14000        1.71900
H         -1.33900        6.62500        1.54200
H         -0.82700        6.11500        4.01600
H         -0.04200        7.68700        4.05200
H         -2.79700        8.06900        3.04200
H         -4.48200        8.31500        6.17700
H         -4.38300        9.23600        4.64400
H         -2.53700        7.92600        7.07600
H         -1.10800        7.23500        6.39900
N         -1.77900        4.15300        1.22300
C         -2.67800        3.51400        0.26700
C         -3.42000        4.67000       -0.43500
O         -3.28300        5.83400       -0.10400
C         -3.72400        2.63500        0.88300
S         -3.12800        1.25400        1.87800
H         -2.16500        4.52700        2.08600
H         -2.19700        3.00300       -0.56400
H         -4.28600        2.15200        0.01900
H         -4.49500        3.22200        1.45400
N         -4.29500        4.19600       -1.49200
C         -5.01300        5.23200       -2.16600
C         -4.32500        6.53600       -2.28400
O         -5.14100        7.55100       -2.23500
C         -6.44500        5.33000       -1.77000
C         -7.20500        4.07000       -2.07700
C         -7.20800        3.04300       -1.18300
C         -7.95400        3.98000       -3.29400
C         -7.90500        1.87900       -1.35900
C         -8.62700        2.78600       -3.39400
C         -8.66800        1.75600       -2.55900
O         -9.34700        0.57300       -2.66600
H         -4.34900        3.19100       -1.71900
H         -4.99300        4.89300       -3.27600
H         -6.93500        6.14800       -2.33800
H         -6.54900        5.55800       -0.67400
H         -6.58700        3.19100       -0.28700
H         -7.97100        4.77900       -3.99700
H         -7.87200        1.07500       -0.64200
H         -9.22800        2.70000       -4.32600
H        -10.01900        0.38800       -1.91000
N         -2.93700        6.71700       -2.44100
C         -2.47800        8.12800       -2.53500
C         -1.75700        8.26300       -3.74400
O         -1.37700        9.62000       -3.88400
C         -1.59200        8.34100       -1.32300
H         -2.28600        5.92900       -2.51700
H         -3.36800        8.80900       -2.47000
H         -2.22800        8.61600       -0.43900
H         -1.03900        7.37200       -1.16400
H         -0.92200        9.17700       -1.57400
N         -1.26900        7.62000       -4.84500
H         -1.58500        7.95500       -5.80600
H         -0.60400        6.81200       -4.89200
H         -2.12400       -0.72500        2.82400
H         -3.48400       -2.69200        4.65100
H         -1.50000       -2.99900        2.35100
H         -3.29700       -2.22200        1.21800
H         -5.15100       -2.85100        3.55200
H         -4.80000       -0.77700        4.28100
H         -4.77500       -4.68000        2.23200
H         -5.63300       -4.61900        0.35500
H         -0.21300       -2.19000       -3.62900
H         -1.51600       -1.06400       -2.53900
H          3.77000       -4.15800       -2.57600
H          1.61200       -5.01500       -0.88900
H          5.02800       -1.65600        4.21100
H          4.80000       -1.99900        6.29200
