223
6y13_stapledHelix_conf24.pdb
C          0.16600       -5.49800        4.30300
C          0.02100       -4.05500        3.83000
C          0.94100       -3.23000        4.62300
C          1.51500       -2.00200        4.00900
C          2.12400       -2.23500        2.66300
C          1.67700       -3.46100        1.97800
C          0.36100       -4.01900        2.37100
C         -0.75700       -3.24000        1.71800
C          1.81600       -0.97800        1.81900
C          0.51900       -3.04800        6.03000
H         -0.01800       -6.23700        3.49600
H         -0.54100       -5.73000        5.12600
H          1.18400       -5.68900        4.69500
H          2.30700       -1.65300        4.73700
H          2.41400       -4.31000        2.12000
H         -0.29100       -2.53000        0.94800
H         -1.25300       -2.59700        2.41900
H          0.01700       -4.02200        6.39000
O          2.57400        0.06300        2.46100
H          1.46200       -3.08500        6.70200
N          2.28700       -1.17100        0.52900
C          1.70200       -0.56700       -0.60700
C          2.70800        0.42000       -1.14700
O          2.54300        1.04200       -2.21500
C          0.47400        0.26200       -0.27900
C         -0.16500        0.79500       -1.50300
N          0.12900        0.66400       -2.78900
C         -1.31500        1.58000       -1.48100
C         -0.74300        1.30100       -3.57900
N         -1.64500        1.87400       -2.77100
H          2.96800       -1.87700        0.36100
H          1.42200       -1.29700       -1.40900
H         -0.29000       -0.26300        0.31100
H          0.87100        1.16700        0.27600
H         -1.90400        1.93600       -0.66500
H         -0.76100        1.36800       -4.66800
H         -2.45100        2.44500       -3.12000
N          3.93600        0.73400       -0.48900
C          4.91500        1.66600       -0.98600
C          5.50900        1.16700       -2.30400
C          6.16700       -0.16200       -2.04300
C          7.28500       -0.11400       -1.03600
N          7.77600       -1.52300       -0.95600
C          4.30400        3.02300       -1.16800
O          5.34300        3.83200       -1.68300
H          4.11400        0.24600        0.37900
H          5.75000        1.81800       -0.24300
H          6.29400        1.84600       -2.66900
H          4.73200        1.10600       -3.06400
H          6.62100       -0.58200       -2.97800
H          5.42400       -0.90800       -1.62700
H          8.16300        0.47200       -1.39900
H          6.97100        0.13900       -0.02400
H          8.81300       -1.47300       -0.69600
H          7.66300       -1.97000       -1.92800
H          7.21300       -2.05200       -0.24300
N          3.96100        3.59200        0.12900
C          3.67800        5.03100       -0.04200
C          3.35100        5.65800        1.25500
O          3.26100        7.07400        0.97500
C          2.73100        5.24300       -1.16200
C          2.35500        6.68300       -1.35700
C          1.44200        6.76800       -2.59900
C          1.06700        8.21000       -2.78000
H          4.74100        3.53200        0.78700
H          4.71100        5.43800       -0.32800
H          1.80100        4.65000       -1.00600
H          3.12600        4.88200       -2.14700
H          1.75600        7.09000       -0.49700
H          3.22300        7.33400       -1.51500
H          2.01400        6.39100       -3.46900
H          0.59000        6.10700       -2.46500
H          0.19100        8.31300       -3.45300
H          1.94600        8.73400       -3.19200
H          0.87800        8.63300       -1.75400
N          2.17200        5.26600        1.92600
C          2.15300        4.00000        2.60200
C          0.70600        3.79600        3.03100
O         -0.09900        4.73200        3.08500
C          3.02400        4.07800        3.84900
C          3.14300        2.90600        4.67500
C          2.26900        2.65900        5.69900
C          4.21800        2.03800        4.44400
C          2.47100        1.54700        6.49100
C          4.42800        0.91900        5.23700
C          3.53900        0.68100        6.27000
O          3.74600       -0.43600        7.07100
H          1.76300        6.03600        2.46600
H          2.51100        3.19700        1.97400
H          4.02500        4.49600        3.60800
H          2.54400        4.90000        4.46600
H          1.41900        3.29200        5.92800
H          4.89400        2.27200        3.60900
H          1.77800        1.35600        7.30300
H          5.25900        0.29200        5.01600
H          3.67400       -0.25200        8.08200
N          0.19900        2.52400        3.37700
C         -1.23900        2.33000        3.77500
C         -1.33500        0.94600        4.31700
O         -0.49600        0.81800        5.45200
C         -2.06100        2.59200        2.52400
C         -3.52200        2.48900        2.82800
N         -4.30900        2.74800        1.56800
H          0.84600        1.75300        3.34900
H         -1.47500        3.10900        4.46400
H         -1.78400        1.89200        1.70500
H         -1.85400        3.61000        2.15300
H         -3.88600        1.58000        3.25100
H         -3.87100        3.36800        3.46800
H         -3.80600        3.49500        1.02500
H         -5.28200        3.03000        1.85700
H         -4.32300        1.81000        1.03400
N         -2.55800        0.33200        4.53800
C         -2.48300       -1.07100        4.78100
C         -3.67400       -1.85500        4.36400
O         -3.69300       -3.07600        4.61000
C         -2.11500       -1.54700        6.14400
S         -0.41300       -1.66800        6.59100
H         -3.13200        0.73300        5.34100
H         -1.63200       -1.40200        4.10100
H         -2.55700       -2.59700        6.32000
H         -2.72100       -0.97100        6.94100
N         -4.81900       -1.35700        3.69800
C         -5.93400       -2.22400        3.28400
C         -5.90700       -2.39100        1.79000
O         -6.65000       -3.18100        1.18800
C         -7.24000       -1.64100        3.69800
C         -7.31100       -1.46500        5.22200
C         -8.35700       -2.61000        3.35300
C         -7.15500       -2.75000        5.96300
H         -4.87700       -0.38100        3.51100
H         -5.74100       -3.24300        3.67100
H         -7.48400       -0.68600        3.22300
H         -6.64100       -0.66300        5.56800
H         -8.34600       -1.08100        5.41100
H         -8.83900       -2.31400        2.41100
H         -9.14400       -2.61900        4.13500
H         -7.99700       -3.65800        3.26700
H         -8.08500       -3.09000        6.49000
H         -6.76700       -3.60100        5.38300
H         -6.40800       -2.62100        6.80600
N         -5.02400       -1.64600        0.95400
C         -4.94800       -1.96300       -0.52600
C         -3.52300       -2.31800       -0.74900
O         -2.72500       -1.77900        0.06500
C         -5.23000       -0.69300       -1.27500
C         -5.21700       -0.86100       -2.77600
C         -5.50300        0.49800       -3.43100
N         -6.76600        0.97900       -2.96000
C         -8.03800        0.46300       -3.27900
N         -9.16400        1.12700       -2.66600
N         -8.25200       -0.52600       -4.06100
H         -4.48200       -0.92200        1.38400
H         -5.58100       -2.78800       -0.79000
H         -6.18300       -0.21300       -0.93400
H         -4.44800        0.09300       -1.06300
H         -5.90700       -1.64700       -3.07000
H         -4.21900       -1.14800       -3.14600
H         -5.53000        0.36200       -4.54900
H         -4.69800        1.21400       -3.24500
H         -6.72400        1.82200       -2.30100
H         -9.44400        2.09400       -2.93300
H         -9.74600        0.67600       -1.93000
H         -9.22300       -0.81700       -4.21300
H         -7.51900       -1.06200       -4.57700
N         -2.93500       -3.15500       -1.70700
C         -1.50000       -3.43100       -1.66500
C         -0.82100       -3.53100       -2.94000
O          0.44200       -3.77600       -2.90400
C         -1.28800       -4.73200       -0.84100
S         -1.88100       -4.36500        0.84300
H         -3.55600       -3.54700       -2.41800
H         -1.03800       -2.66400       -0.96600
H         -1.87300       -5.55200       -1.23400
H         -0.21500       -4.96900       -0.88000
N         -1.37900       -3.39400       -4.22700
C         -0.48600       -3.53400       -5.39900
C         -0.43700       -2.20100       -6.03500
O         -1.31700       -1.36800       -5.73800
C         -1.05200       -4.53500       -6.34600
C         -0.22000       -4.72500       -7.54600
C          0.82400       -5.65400       -7.45800
C         -0.43100       -4.07300       -8.74700
C          1.63700       -5.92200       -8.54500
C          0.37700       -4.32300       -9.86500
C          1.41100       -5.25900       -9.73600
O          2.23300       -5.53600      -10.82400
H         -2.39400       -3.20000       -4.32500
H          0.51700       -3.84600       -5.05100
H         -1.21700       -5.53800       -5.89400
H         -2.08200       -4.22900       -6.69100
H          0.99500       -6.17300       -6.50500
H         -1.25300       -3.36000       -8.78200
H          2.43400       -6.65200       -8.42500
H          0.20000       -3.80300      -10.80600
H          3.22400       -5.27800      -10.81100
N          0.55900       -1.79300       -6.96500
C          0.43200       -0.42300       -7.47500
C          0.92400       -0.24100       -8.83200
O          0.83400        0.89600       -9.39000
C          1.31500        0.49300       -6.58800
H          1.32100       -2.42200       -7.24300
H         -0.59600       -0.03500       -7.34200
H          1.19900        0.23200       -5.52600
H          2.37600        0.39100       -6.92000
H          0.94500        1.51800       -6.75000
N          1.51900       -1.26600       -9.61300
H          1.26600       -1.41800      -10.62800
H          2.23400       -1.88000       -9.14900
H         -1.06300       -3.79700        3.97800
H          1.89700       -3.92100        4.71200
H          0.75400       -1.22600        4.02100
H          3.21900       -2.23800        2.76200
H          1.65500       -3.32000        0.88100
H          0.27300       -5.06600        1.95500
H          0.76900       -0.73100        1.98900
H          2.39200       -0.03100        3.44800
H          3.47500        3.04400       -1.86800
H          6.13700        3.72300       -1.09800
H          4.25300        5.51800        1.91200
H          4.21300        7.31100        0.84000
H         -0.80300        0.29800        3.52000
H         -0.70900        1.62500        5.98800
