223
6y13_stapledHelix_conf45.pdb
C          3.34300       -0.63600       -5.02200
C          2.25900        0.18800       -4.40800
C          1.12600        0.43300       -5.34300
C          0.00900       -0.50800       -5.27800
C          0.16100       -1.73100       -4.40900
C          1.10300       -1.63700       -3.27600
C          1.82400       -0.36200       -3.07300
C          3.11000       -0.58400       -2.27200
C         -1.27000       -2.22100       -4.01100
C          0.70500        1.90200       -5.34600
H          3.48300       -1.63300       -4.55900
H          4.35300       -0.13600       -4.92700
H          3.21400       -0.76900       -6.10600
H         -0.35600       -0.83000       -6.30100
H          1.81300       -2.49800       -3.31600
H          4.01000       -0.52400       -2.90800
H          3.13100       -1.57400       -1.77100
H          1.45200        2.54300       -5.90100
O         -1.78100       -1.47100       -3.00900
H         -0.23500        2.05800       -5.92500
N         -2.00300       -2.31700       -5.22800
C         -3.44400       -2.21800       -5.09300
C         -3.93300       -3.27600       -4.20400
O         -3.12000       -4.13200       -3.81300
C         -4.08600       -2.22700       -6.43900
C         -5.53600       -2.11800       -6.53100
N         -6.16700       -0.90400       -6.55900
C         -6.53100       -3.09000       -6.67900
C         -7.47800       -1.12800       -6.71700
N         -7.69500       -2.44200       -6.78800
H         -1.70200       -3.06000       -5.84700
H         -3.69700       -1.20900       -4.63300
H         -3.59600       -1.40100       -7.04300
H         -3.81400       -3.16800       -7.02900
H         -6.34400       -4.14000       -6.69700
H         -8.22800       -0.33200       -6.77100
H         -8.66700       -2.84000       -6.90500
N         -5.25300       -3.43400       -3.72400
C         -5.77600       -4.35700       -2.75500
C         -7.21300       -4.68400       -3.04800
C         -8.13900       -3.49900       -3.01500
C         -8.14700       -2.82100       -1.66400
N         -9.08200       -1.64800       -1.72700
C         -5.02400       -5.65900       -2.56800
O         -5.03900       -6.33900       -3.83600
H         -5.91800       -2.74000       -4.11400
H         -5.69900       -3.81400       -1.78000
H         -7.53400       -5.45000       -2.28900
H         -7.32100       -5.21400       -4.02300
H         -9.16600       -3.93800       -3.24800
H         -7.88900       -2.77000       -3.81000
H         -8.54900       -3.51900       -0.89900
H         -7.16200       -2.49200       -1.34600
H         -8.79900       -1.03800       -2.53600
H         -9.01500       -1.13400       -0.79800
H        -10.06500       -2.04400       -1.83500
N         -3.78800       -5.68400       -1.99000
C         -3.29200       -5.53400       -0.72900
C         -3.85600       -4.39800        0.08600
O         -5.17200       -4.67200        0.42600
C         -1.74400       -5.40200       -0.70200
C         -1.04700       -6.58200       -1.27500
C          0.46700       -6.32500       -1.16700
C          0.84300       -6.14100        0.29400
H         -3.19700       -6.45600       -2.52200
H         -3.44100       -6.50300       -0.14600
H         -1.43000       -5.25400        0.35300
H         -1.51500       -4.50400       -1.29500
H         -1.29700       -7.53200       -0.76500
H         -1.23100       -6.60100       -2.37600
H          1.04700       -7.08900       -1.67400
H          0.59000       -5.31000       -1.65300
H          0.57400       -5.07800        0.55400
H          1.94700       -6.23300        0.36600
H          0.30700       -6.86700        0.95200
N         -3.00400       -4.15700        1.21000
C         -3.23900       -2.90400        1.90500
C         -3.06700       -1.70500        1.07600
O         -2.85100       -1.68900       -0.15800
C         -2.60000       -2.92300        3.24300
C         -1.14900       -3.13000        3.28000
C         -0.20700       -2.13300        3.24100
C         -0.69300       -4.44100        3.36000
C          1.13500       -2.46100        3.28400
C          0.65000       -4.75900        3.40300
C          1.59300       -3.75300        3.36500
O          2.96500       -4.00200        3.40800
H         -3.22600       -4.89900        1.91800
H         -4.37200       -2.93700        2.11300
H         -2.79400       -1.98900        3.83400
H         -3.06700       -3.72300        3.89600
H         -0.52400       -1.09500        3.17800
H         -1.39700       -5.27800        3.39600
H          1.83600       -1.61900        3.24400
H          1.01500       -5.77600        3.46100
H          3.35200       -4.91300        3.25800
N         -3.11500       -0.34200        1.60000
C         -3.11200        0.79200        0.69200
C         -1.75400        1.18100        0.17700
O         -1.08500        0.21900       -0.51900
C         -3.90100        1.91300        1.21800
C         -5.35000        1.64300        1.46100
N         -5.61600        0.59500        2.44900
H         -3.13500       -0.30700        2.61400
H         -3.63500        0.44800       -0.28700
H         -3.88400        2.78300        0.48800
H         -3.48500        2.34200        2.17300
H         -5.87100        2.56900        1.87100
H         -5.93400        1.42900        0.53600
H         -5.42800       -0.37700        2.04600
H         -6.67700        0.63100        2.69500
H         -5.07400        0.78500        3.33800
N         -1.77400        2.49600       -0.50400
C         -0.65200        2.70700       -1.34000
C         -0.13200        4.01300       -1.58900
O          0.80800        4.17000       -2.40500
C         -0.88600        2.08200       -2.75300
S          0.53400        2.57300       -3.72900
H         -2.68700        2.54600       -1.05100
H          0.21100        2.06100       -0.96600
H         -1.02900        1.01600       -2.67700
H         -1.79300        2.57000       -3.19700
N         -0.54200        5.27100       -0.99900
C          0.19900        6.44500       -1.47300
C          1.53500        6.29900       -0.84400
O          2.49000        7.09000       -1.02700
C         -0.51600        7.70700       -1.45600
C          0.33500        8.84900       -1.97600
C         -1.27100        8.08100       -0.21900
C         -0.37600       10.18200       -1.99800
H         -1.28400        5.22900       -0.33500
H          0.48000        6.26400       -2.58200
H         -1.31000        7.60800       -2.27100
H          0.71900        8.66900       -2.99200
H          1.23800        8.97500       -1.31500
H         -2.31400        8.37700       -0.52100
H         -0.83600        9.04900        0.14100
H         -1.38700        7.33000        0.54800
H         -1.41000       10.14500       -2.34800
H          0.14900       10.83700       -2.77300
H         -0.30200       10.75600       -1.07800
N          1.85600        5.21300        0.04800
C          3.24800        5.02000        0.54600
C          3.49100        3.57700        0.71500
O          2.51900        2.80100        0.76000
C          3.40700        5.72100        1.86000
C          2.59400        5.30200        3.02700
C          1.12900        5.18300        2.86500
N          0.48900        4.94100        4.17600
C         -0.92700        4.65000        4.06000
N         -1.73100        4.39000        5.19200
N         -1.39400        4.65000        2.83500
H          1.09400        4.60800        0.28300
H          3.96000        5.43700       -0.19000
H          4.52300        5.63100        2.09700
H          3.21300        6.81900        1.63300
H          2.75500        6.10700        3.81700
H          3.04000        4.39700        3.55300
H          0.86900        4.19400        2.35900
H          0.70400        5.96400        2.28600
H          0.98100        4.97400        5.06700
H         -1.94300        3.42100        5.54100
H         -2.14500        5.16900        5.72900
H         -0.92600        4.82500        1.98300
H         -2.43700        4.43600        2.79600
N          4.75700        2.93100        0.82400
C          4.83700        1.50500        1.08600
C          5.83400        1.19000        2.12700
O          6.44800        2.15000        2.71500
C          4.83200        0.60600       -0.10000
S          3.28300        0.69600       -0.99200
H          5.56200        3.55200        0.69100
H          3.82000        1.23000        1.59200
H          4.90800       -0.44000        0.30600
H          5.72200        0.77400       -0.74100
N          6.18400       -0.11300        2.55300
C          7.13400       -0.38500        3.57200
C          8.29900       -1.22900        3.20300
O          9.04700       -1.54100        4.19000
C          6.47900       -1.05500        4.79100
C          5.42100       -0.16200        5.34100
C          4.15700       -0.30400        4.81700
C          5.62200        0.77300        6.31500
C          3.09500        0.44100        5.22500
C          4.54500        1.55000        6.74600
C          3.27300        1.40600        6.22100
O          2.19700        2.15600        6.63200
H          5.71200       -0.94400        2.09500
H          7.51500        0.60000        3.96700
H          7.23800       -1.16700        5.59500
H          6.10900       -2.02000        4.45500
H          3.99100       -1.04500        4.03600
H          6.62000        0.92100        6.75900
H          2.10400        0.30000        4.77900
H          4.68700        2.29300        7.51400
H          2.01900        2.41800        7.59800
N          8.53900       -1.63400        1.88100
C          9.54300       -2.44200        1.30200
C         10.29500       -3.35100        2.20200
O         10.07900       -3.57200        3.40400
C         10.53400       -1.76500        0.42300
H          7.81600       -1.24500        1.17200
H          8.95800       -3.19200        0.62200
H         11.50500       -1.54700        0.97400
H         10.22800       -0.79800        0.02300
H         10.87100       -2.36300       -0.45700
N         11.39800       -4.05700        1.61100
H         11.61400       -3.99600        0.58500
H         12.03700       -4.66800        2.18900
H          2.70000        1.19200       -4.17600
H          1.59100        0.29700       -6.37600
H         -0.89700        0.03400       -4.85600
H          0.48700       -2.54000       -5.09100
H          0.50500       -1.82700       -2.33200
H          1.24600        0.35300       -2.49400
H         -1.10500       -3.28600       -3.64000
H         -2.74600       -1.59500       -2.88000
H         -5.76400       -6.30900       -1.97100
H         -4.56800       -7.21200       -3.70800
H         -3.92200       -3.47600       -0.56500
H         -5.21700       -4.74900        1.41700
H         -1.13200        1.38300        1.10400
H         -0.15000        0.04400       -0.22900
