223
6y13_stapledHelix_conf38.pdb
C          1.01800       -0.08600       -6.60900
C          1.65800        0.70500       -5.48500
C          0.60500        1.43500       -4.77100
C          1.09100        2.23700       -3.59300
C          2.55100        1.80900       -3.25600
C          2.39800        0.30400       -3.12800
C          2.46400       -0.19300       -4.54300
C          2.15900       -1.61100       -4.71400
C          2.97300        2.58200       -2.07500
C         -0.15900        2.40100       -5.63700
H          1.75800       -0.47400       -7.34200
H          0.35100        0.58900       -7.19300
H          0.34500       -0.87700       -6.21400
H          1.08600        3.31100       -3.70200
H          3.12300       -0.18100       -2.48700
H          3.02700       -2.16600       -4.17900
H          2.39500       -1.96300       -5.79400
H          0.57900        3.06100       -6.13100
O          2.87300        3.95600       -2.38100
H         -0.88500        1.96800       -6.31600
N          3.95600        2.18400       -1.21400
C          5.25000        1.74100       -1.41600
C          5.59900        1.00700       -0.09400
O          6.54500        0.21800       -0.04900
C          6.37600        2.69300       -1.51000
C          6.46500        3.68700       -2.56800
N          7.51400        4.58700       -2.55800
C          5.77500        3.99200       -3.68600
C          7.41800        5.37300       -3.63600
N          6.33100        5.02300       -4.36800
H          4.03400        2.98400       -0.48200
H          5.41500        0.96000       -2.18600
H          6.52200        3.17800       -0.48600
H          7.35800        2.10700       -1.59500
H          4.90300        3.48900       -4.03400
H          8.13400        6.15500       -3.84000
H          5.98800        5.44900       -5.25800
N          4.87000        1.21700        1.09200
C          5.08400        0.50000        2.33900
C          6.13900        1.14600        3.19600
C          5.87800        2.55100        3.62000
C          7.02900        3.09200        4.49600
N          6.63900        4.47000        4.83600
C          3.76900        0.48200        3.10600
O          3.94100       -0.26100        4.26100
H          4.13800        1.92100        1.07400
H          5.47600       -0.53100        2.14800
H          7.16900        1.00300        2.80000
H          6.11500        0.53800        4.15700
H          4.93200        2.69400        4.14500
H          5.93200        3.21300        2.70000
H          7.15500        2.53000        5.42300
H          7.95400        3.21600        3.88300
H          5.63600        4.49000        5.15100
H          6.79200        5.08700        3.97600
H          7.30500        4.81800        5.61000
N          2.75500        0.05700        2.25800
C          1.40500       -0.06700        2.67500
C          0.83300        1.23000        3.23300
O          1.49100        1.65700        4.38100
C          1.14900       -1.28400        3.48800
C         -0.25300       -1.47100        3.92500
C         -0.41300       -2.76100        4.76400
C         -1.88200       -2.81600        5.13200
H          3.02000       -0.67000        1.61000
H          0.82400       -0.23400        1.72100
H          1.89600       -1.41700        4.31600
H          1.39000       -2.16100        2.80200
H         -0.68300       -0.70200        4.58000
H         -0.89700       -1.68600        3.03400
H         -0.11500       -3.64800        4.17300
H          0.16100       -2.59300        5.68400
H         -2.28400       -3.83800        5.21600
H         -2.50400       -2.23100        4.40900
H         -2.03300       -2.31500        6.12500
N         -0.54900        1.17600        3.25700
C         -1.40600        2.20200        3.59400
C         -1.52000        3.37600        2.71400
O         -2.28000        4.31100        3.14400
C         -1.48900        2.67100        5.03500
C         -1.91800        1.63900        5.99800
C         -3.25700        1.36900        6.09200
C         -0.98300        0.99700        6.83600
C         -3.79800        0.46500        6.99400
C         -1.54800        0.10200        7.72500
C         -2.88400       -0.17100        7.82200
O         -3.39900       -1.09400        8.74700
H         -0.89700        0.64100        2.43100
H         -2.46800        1.71200        3.49300
H         -2.29500        3.45500        5.02400
H         -0.57000        3.22300        5.33900
H         -3.96800        1.86600        5.44200
H          0.07000        1.20100        6.77000
H         -4.86000        0.28300        7.03400
H         -0.88200       -0.44100        8.39900
H         -3.69900       -0.79900        9.66500
N         -0.93800        3.65600        1.47100
C         -1.19200        4.90300        0.77400
C         -2.13600        4.65700       -0.40900
O         -2.35500        5.94500       -1.00200
C         -0.00800        5.69000        0.41200
C          0.88000        6.17500        1.50300
N          1.44900        5.05800        2.25300
H         -0.34800        2.97100        1.03400
H         -1.81700        5.56600        1.43800
H         -0.22300        6.55900       -0.25000
H          0.66100        5.03300       -0.24200
H          1.74400        6.73100        1.07600
H          0.35500        6.78300        2.27900
H          1.58500        4.20000        1.65100
H          0.86200        4.84900        3.12600
H          2.43300        5.37000        2.61400
N         -1.61600        3.74300       -1.34600
C         -2.64700        3.26000       -2.23300
C         -3.48700        2.33700       -1.41700
O         -3.37300        2.17800       -0.20200
C         -2.12800        2.52500       -3.41600
S         -1.00900        3.54400       -4.42400
H         -0.86100        4.12000       -1.96300
H         -3.21900        4.14900       -2.58900
H         -3.03700        2.37200       -4.07200
H         -1.76000        1.51400       -3.22000
N         -4.52900        1.52400       -2.01700
C         -5.32200        0.69600       -1.18300
C         -5.18600       -0.68600       -1.64900
O         -5.85800       -1.57600       -1.10900
C         -6.80000        1.00400       -1.21100
C         -7.11800        2.42100       -0.78600
C         -7.50600        0.11400       -0.21300
C         -8.62300        2.73300       -0.81600
H         -4.60300        1.61800       -3.02400
H         -5.03100        0.71700       -0.11100
H         -7.17600        0.77900       -2.21900
H         -6.78800        2.68400        0.21000
H         -6.71500        3.07000       -1.61600
H         -6.86700       -0.36500        0.53100
H         -8.05000       -0.71900       -0.74900
H         -8.24600        0.68800        0.41900
H         -9.12100        2.48300        0.13900
H         -8.73100        3.85700       -0.89100
H         -9.11100        2.35100       -1.70500
N         -4.31600       -1.15400       -2.71500
C         -4.36200       -2.51600       -3.07900
C         -3.07600       -3.23700       -2.86300
O         -2.90400       -4.41000       -3.19200
C         -5.00400       -2.93900       -4.32600
C         -4.61100       -2.63900       -5.67300
C         -4.40000       -1.27700       -6.20200
N         -4.10400       -1.48100       -7.64000
C         -3.62900       -0.45000       -8.47100
N         -3.42500       -0.78200       -9.85400
N         -3.42600        0.69200       -8.04900
H         -3.73000       -0.40200       -3.08900
H         -5.01100       -3.01900       -2.27700
H         -6.13200       -2.81800       -4.22500
H         -4.97000       -4.09000       -4.28000
H         -5.45500       -3.05800       -6.34100
H         -3.77600       -3.34700       -6.06800
H         -3.62400       -0.69400       -5.72100
H         -5.34100       -0.69500       -6.17400
H         -4.23800       -2.43700       -8.08700
H         -4.15800       -0.36100      -10.50400
H         -2.64400       -1.37500      -10.19600
H         -3.05100        1.40000       -8.79100
H         -3.59300        1.20800       -7.15700
N         -1.91100       -2.62200       -2.24300
C         -0.71100       -3.40700       -2.04900
C         -0.59100       -3.98300       -0.67900
O         -1.31500       -3.66400        0.28900
C          0.57300       -2.71300       -2.37600
S          0.67900       -2.34500       -4.11400
H         -2.05900       -1.64900       -1.99200
H         -0.76600       -4.33200       -2.70500
H          1.37700       -3.49800       -2.17200
H          0.81300       -1.90000       -1.67800
N          0.42900       -4.96300       -0.50600
C          0.69200       -5.64100        0.75100
C          2.14300       -5.63600        1.06400
O          2.98800       -5.08000        0.28800
C          0.30100       -7.11200        0.61200
C         -1.13100       -7.28200        0.29600
C         -2.07500       -7.47100        1.29600
C         -1.56200       -7.25300       -1.02000
C         -3.41000       -7.62500        0.98600
C         -2.89800       -7.40400       -1.35100
C         -3.80600       -7.59000       -0.32900
O         -5.15800       -7.74100       -0.67700
H          1.06300       -5.26500       -1.30600
H          0.05900       -5.25900        1.57800
H          0.54200       -7.69800        1.51900
H          0.89800       -7.54700       -0.20500
H         -1.78300       -7.51200        2.35800
H         -0.81400       -7.10900       -1.80000
H         -4.18600       -7.77600        1.72100
H         -3.25800       -7.37900       -2.37800
H         -5.41400       -8.04500       -1.60100
N          2.60400       -6.26300        2.25100
C          4.01300       -6.29700        2.62900
C          4.39600       -7.71400        2.76800
O          3.61000       -8.68100        2.52300
C          4.18200       -5.63700        3.98300
H          1.95600       -6.73600        2.91500
H          4.62600       -5.80500        1.84100
H          3.29800       -4.99000        4.13900
H          5.10800       -5.04700        4.02600
H          4.16000       -6.42800        4.79100
N          5.71000       -8.10600        3.20100
H          6.43900       -8.44600        2.52800
H          6.00200       -8.07100        4.19600
H          2.36700        1.40400       -5.95600
H         -0.17500        0.68800       -4.42700
H          0.51500        1.93500       -2.70300
H          3.11000        2.03300       -4.15600
H          1.37900        0.04600       -2.74200
H          3.56400       -0.08200       -4.81700
H          2.00100        2.51500       -1.38700
H          2.92600        4.51300       -1.55000
H          3.58500        1.53400        3.48400
H          4.60500       -1.00100        4.15800
H          1.13500        2.00000        2.45600
H          1.64600        0.94900        5.02800
H         -3.09300        4.36400        0.00200
H         -2.79300        6.55200       -0.36700
