223
6y13_stapledHelix_conf18.pdb
C          4.22800        1.51100        3.43600
C          3.83100        2.95700        3.24500
C          3.72900        3.24400        1.75100
C          3.06400        4.58800        1.61500
C          1.60100        4.43400        1.91500
C          1.37600        3.53100        3.06300
C          2.58900        3.36500        3.94900
C          2.15300        2.46200        5.08600
C          0.91600        3.89500        0.64700
C          5.12400        3.26700        1.14000
H          4.98200        1.27500        2.67600
H          3.36200        0.86900        3.30400
H          4.73900        1.37800        4.41400
H          3.48400        5.24900        2.43600
H          0.57800        3.96300        3.69600
H          2.60900        2.87500        6.03900
H          2.51200        1.42800        5.01100
H          5.11900        4.13800        0.41600
O          0.41300        2.62600        0.85700
H          5.88900        3.54400        1.91200
N         -0.15200        4.75800        0.29900
C         -0.79600        4.59300       -0.94800
C         -1.70100        3.40600       -1.06000
O         -1.99500        2.63800       -0.15100
C          0.21800        4.56200       -2.09600
C          1.01000        5.82000       -2.11700
N          1.98200        6.09900       -3.00900
C          0.88100        6.88900       -1.22900
C          2.47500        7.31600       -2.71400
N          1.80000        7.76900       -1.64500
H         -0.83000        4.97200        1.04700
H         -1.41700        5.49900       -1.12000
H         -0.28200        4.50900       -3.07600
H          0.92400        3.72400       -2.02500
H          0.19800        6.99100       -0.40300
H          3.25400        7.88100       -3.19500
H          1.94600        8.69000       -1.16400
N         -2.29600        3.10600       -2.33000
C         -3.15600        2.00300       -2.60500
C         -4.00600        2.21300       -3.81100
C         -4.87500        3.42500       -3.74200
C         -5.85900        3.46300       -2.63300
N         -6.57600        4.76800       -2.80000
C         -2.35100        0.72800       -2.88500
O         -1.50400        0.88900       -3.93900
H         -2.07800        3.76200       -3.08200
H         -3.73800        1.75700       -1.74700
H         -4.70900        1.33900       -3.89900
H         -3.32600        2.26500       -4.69300
H         -5.40200        3.50300       -4.72700
H         -4.27400        4.36900       -3.70300
H         -6.66600        2.69800       -2.70200
H         -5.42500        3.51000       -1.62000
H         -7.28500        4.68300       -3.57800
H         -5.84700        5.51300       -3.06900
H         -7.04900        5.02400       -1.88300
N         -3.27200       -0.33200       -3.15100
C         -2.80000       -1.63800       -3.29600
C         -2.07900       -2.04400       -4.58900
O         -1.82500       -3.44100       -4.35800
C         -3.78300       -2.71300       -2.93700
C         -5.05100       -2.81200       -3.66400
C         -6.04400       -1.69900       -3.56500
C         -6.54800       -1.45600       -2.14900
H         -4.10100       -0.27300       -2.50600
H         -1.95800       -1.72300       -2.48400
H         -4.00900       -2.68900       -1.83400
H         -3.22400       -3.68300       -3.11800
H         -4.93300       -2.99900       -4.76700
H         -5.64000       -3.74500       -3.34700
H         -5.75100       -0.80300       -4.10900
H         -6.96800       -2.06700       -4.13400
H         -7.03600       -0.47400       -2.13600
H         -5.74900       -1.56200       -1.39400
H         -7.31000       -2.22000       -1.90000
N         -0.82100       -1.46500       -4.65800
C          0.18300       -1.88300       -5.58600
C          1.32700       -0.96400       -5.36900
O          1.13200        0.18200       -5.02700
C         -0.10300       -2.34500       -6.92400
C         -0.79900       -1.54600       -7.91100
C         -0.24000       -0.56300       -8.70600
C         -2.15800       -1.78400       -8.13400
C         -0.96200        0.13600       -9.65400
C         -2.88400       -1.09500       -9.07200
C         -2.32500       -0.12100       -9.86100
O         -3.01600        0.60000      -10.82200
H         -0.41900       -1.50500       -3.65800
H          0.55000       -2.84000       -5.04900
H          0.90200       -2.59200       -7.40200
H         -0.57800       -3.38200       -6.89200
H          0.79300       -0.32400       -8.59300
H         -2.69100       -2.56300       -7.56700
H         -0.50500        0.90700      -10.28200
H         -3.95900       -1.30300       -9.22300
H         -3.76900        0.18400      -11.38700
N          2.70700       -1.32700       -5.52300
C          3.79300       -0.39700       -5.22600
C          4.01400       -0.57700       -3.71600
O          2.83600       -0.28700       -3.07900
C          3.55900        1.02900       -5.51500
C          3.24500        1.41100       -6.91600
N          4.35900        1.01300       -7.81800
H          2.83700       -2.29100       -5.85200
H          4.69300       -0.72300       -5.74300
H          4.58100        1.51600       -5.27800
H          2.90700        1.51800       -4.76800
H          2.35000        0.97900       -7.35600
H          3.22900        2.53900       -6.99400
H          5.22700        1.57400       -7.60400
H          4.03500        1.23200       -8.81900
H          4.50100       -0.03500       -7.72200
N          5.20000       -0.05500       -3.20300
C          5.34400        0.09900       -1.78900
C          4.74000       -1.03800       -1.03300
O          4.30000       -2.08600       -1.57800
C          4.92600        1.45000       -1.29500
S          5.64700        1.81900        0.30200
H          6.02400       -0.41900       -3.68400
H          6.48100        0.07300       -1.61600
H          3.84600        1.53800       -1.32300
H          5.31600        2.18800       -2.04400
N          4.58900       -1.06900        0.37700
C          3.95100       -2.20100        1.09100
C          2.64100       -1.56200        1.45400
O          2.42400       -0.42600        1.10600
C          4.78600       -2.55700        2.29800
C          6.19500       -2.93700        1.88000
C          4.26100       -3.69800        3.10900
C          6.98900       -3.26100        3.10300
H          4.91800       -0.31600        0.92000
H          3.72000       -3.05200        0.44500
H          4.81800       -1.66300        2.93900
H          6.66000       -2.15700        1.23300
H          6.13300       -3.86100        1.25300
H          3.77400       -4.50500        2.52800
H          3.62800       -3.34200        3.97400
H          5.11100       -4.20600        3.65200
H          6.55700       -2.83700        4.03800
H          8.01800       -2.81000        3.06100
H          7.06700       -4.36800        3.28000
N          1.62400       -2.22100        2.19200
C          0.36100       -1.48800        2.56300
C          0.45200       -1.13900        3.97100
O          1.51100       -1.54500        4.58000
C         -0.81800       -2.18700        2.01600
C         -2.16000       -1.57600        2.29800
C         -3.27600       -2.33100        1.59400
N         -4.57800       -1.78100        1.79800
C         -5.07700       -0.57400        1.32400
N         -6.43000       -0.21900        1.64500
N         -4.39500        0.26800        0.58300
H          1.79100       -3.18500        2.43800
H          0.40200       -0.50100        2.01500
H         -0.71800       -2.12800        0.88500
H         -0.81800       -3.28700        2.19400
H         -2.18600       -0.54100        2.08400
H         -2.44500       -1.67800        3.37700
H         -3.28500       -3.37700        1.89500
H         -3.05800       -2.36200        0.48300
H         -5.25200       -2.36700        2.39400
H         -7.18800       -0.28000        0.90400
H         -6.60300        0.09000        2.62200
H         -3.45000        0.01500        0.34100
H         -4.83000        1.15200        0.26800
N         -0.40600       -0.42200        4.82900
C          0.03300       -0.14700        6.21400
C         -0.68800       -1.05000        7.17900
O         -0.43300       -1.06300        8.39600
C         -0.26900        1.30000        6.49800
S          0.35400        2.41000        5.22200
H         -1.28800       -0.10200        4.49400
H          1.09200       -0.35100        6.36600
H         -1.32400        1.51800        6.66400
H          0.25600        1.58800        7.46000
N         -1.68600       -1.88500        6.62100
C         -2.48800       -2.83500        7.41900
C         -2.24700       -4.19200        6.85300
O         -2.74200       -5.25000        7.33900
C         -3.96900       -2.52800        7.19700
C         -4.90500       -3.40000        7.91400
C         -5.39900       -4.51000        7.24100
C         -5.31000       -3.16300        9.23400
C         -6.28000       -5.35100        7.90600
C         -6.18800       -4.01500        9.87300
C         -6.67400       -5.11700        9.19600
O         -7.57200       -6.02700        9.79600
H         -1.92200       -1.86700        5.61500
H         -2.19900       -2.77100        8.46400
H         -4.13200       -1.48800        7.57100
H         -4.22600       -2.56400        6.11700
H         -5.14800       -4.74400        6.23700
H         -4.91100       -2.29100        9.75200
H         -6.68400       -6.22900        7.39700
H         -6.53100       -3.87900       10.88100
H         -8.54000       -6.05400        9.51600
N         -1.42500       -4.36700        5.70200
C         -1.15700       -5.66800        5.11500
C          0.29200       -5.92300        4.97900
O          1.06400       -5.00700        5.43100
C         -1.75400       -5.77200        3.72800
H         -0.95000       -3.55700        5.20900
H         -1.69600       -6.39900        5.74600
H         -2.61800       -5.12100        3.57500
H         -0.97200       -5.56900        2.93100
H         -2.09100       -6.82700        3.50700
N          0.85200       -7.08900        4.39400
H          1.75300       -7.03500        3.89100
H          0.39300       -8.02900        4.43300
H          4.72800        3.54900        3.60500
H          3.21000        2.40700        1.29100
H          3.27700        5.09400        0.65200
H          1.20600        5.46800        2.12700
H          1.10600        2.54700        2.69900
H          2.78400        4.38600        4.38800
H          1.66100        3.82500       -0.18100
H          0.82500        1.90200        0.33500
H         -1.85600        0.50400       -1.90400
H         -0.69400        1.36600       -3.52800
H         -2.81800       -1.87400       -5.35700
H         -1.12500       -3.45000       -3.64800
H          4.09300       -1.72900       -3.66200
H          2.64400        0.65700       -2.97300
