223
6y13_stapledHelix_conf32.pdb
C          4.23600       -0.64900       -3.28900
C          2.98100        0.04000       -2.73900
C          2.56600        1.05500       -3.78400
C          1.50800        0.58000       -4.71900
C          1.52300       -0.86200       -4.97400
C          1.93300       -1.78000       -3.85000
C          1.97700       -1.02600       -2.51000
C          0.62200       -0.68100       -2.05900
C          0.22000       -1.49700       -5.48900
C          2.18700        2.28900       -2.95100
H          4.15900       -0.71600       -4.37500
H          4.33000       -1.59000       -2.73600
H          5.13000        0.02100       -3.12300
H          1.75800        1.07300       -5.73400
H          2.90900       -2.27500       -4.02000
H          0.14400       -1.68500       -1.76100
H         -0.10200       -0.35300       -2.84400
H          2.13500        3.08000       -3.77900
O          0.09100       -1.06600       -6.83300
H          1.16000        2.19300       -2.65500
N          0.50900       -2.87600       -5.54000
C         -0.39200       -3.90300       -5.65300
C         -1.37000       -4.06900       -4.52900
O         -1.63400       -3.08300       -3.85500
C          0.21400       -5.17600       -6.14000
C          1.28700       -5.75600       -5.35000
N          1.91000       -5.41700       -4.22400
C          1.93200       -6.94800       -5.74600
C          2.86100       -6.27200       -3.89300
N          2.87900       -7.23200       -4.84200
H          1.49700       -3.04500       -5.81300
H         -1.04900       -3.59600       -6.58800
H         -0.57600       -5.91900       -6.40300
H          0.69900       -4.90100       -7.13800
H          1.70700       -7.54100       -6.63200
H          3.56000       -6.30700       -3.05800
H          3.49100       -8.07400       -4.92400
N         -1.98600       -5.28700       -4.19700
C         -3.03400       -5.53000       -3.22800
C         -3.94200       -6.53400       -3.87200
C         -5.14000       -7.00300       -3.17800
C         -6.14200       -5.92400       -2.83900
N         -6.60900       -5.27000       -4.10100
C         -2.51700       -6.10900       -1.93500
O         -3.64600       -6.45000       -1.10200
H         -1.63200       -6.10900       -4.71500
H         -3.51700       -4.54200       -3.05500
H         -3.31100       -7.44700       -4.10500
H         -4.25900       -6.20300       -4.90500
H         -5.04200       -7.69800       -2.34400
H         -5.70000       -7.63700       -3.95500
H         -7.07600       -6.35100       -2.42700
H         -5.77900       -5.12100       -2.21000
H         -7.05700       -6.03900       -4.70200
H         -5.78400       -4.83100       -4.59300
H         -7.31900       -4.53200       -3.83400
N         -1.54800       -5.47600       -1.18400
C         -1.53500       -4.29600       -0.49900
C         -0.26000       -4.27500        0.39500
O         -0.28200       -3.07300        1.12700
C         -2.59700       -3.77300        0.37000
C         -3.94200       -3.44200       -0.10900
C         -4.06500       -2.36100       -1.14300
C         -5.55500       -2.25000       -1.49400
H         -0.77700       -6.16600       -0.91200
H         -1.30400       -3.46800       -1.23300
H         -2.21800       -2.80200        0.84200
H         -2.73700       -4.39300        1.31300
H         -4.65200       -4.21600       -0.34900
H         -4.45400       -2.94900        0.81800
H         -3.84800       -1.37800       -0.63600
H         -3.51800       -2.47000       -2.05600
H         -6.15300       -3.05400       -1.01200
H         -5.70400       -2.41800       -2.59900
H         -5.98000       -1.27200       -1.29100
N          0.97400       -4.28700       -0.35200
C          2.07800       -4.55300        0.52300
C          2.48700       -3.55200        1.49600
O          3.11200       -3.92900        2.51600
C          3.30700       -4.98900       -0.32500
C          4.46400       -5.27900        0.51500
C          4.72000       -6.59600        0.93500
C          5.30000       -4.25800        0.90800
C          5.82800       -6.74600        1.73600
C          6.40300       -4.43900        1.71100
C          6.66000       -5.74500        2.13200
O          7.77600       -5.90500        2.94200
H          0.91500       -5.09700       -1.00100
H          1.82300       -5.49700        1.08800
H          2.98700       -5.95600       -0.80600
H          3.52600       -4.28900       -1.12200
H          4.09500       -7.40600        0.64800
H          5.12000       -3.21900        0.59200
H          6.04200       -7.76500        2.06800
H          7.04900       -3.62100        2.00800
H          7.81600       -5.38600        3.83400
N          2.28700       -2.13900        1.43400
C          2.49100       -1.19100        2.45700
C          3.45600       -0.07700        2.27900
O          4.75400       -0.66000        2.10400
C          2.60500       -1.79500        3.86000
C          1.35300       -2.50600        4.28200
N          1.50700       -3.11400        5.64200
H          1.98800       -1.82000        0.49800
H          1.44400       -0.70400        2.58600
H          2.62800       -0.86700        4.51400
H          3.54300       -2.28700        4.07100
H          0.51400       -1.73200        4.43200
H          0.90000       -3.20000        3.57700
H          0.94000       -4.02800        5.61900
H          1.10900       -2.46600        6.37400
H          2.53100       -3.32900        5.79400
N          3.15700        0.59700        0.99700
C          3.82900        1.82800        0.79900
C          3.26600        2.92200        1.65800
O          2.55900        2.64100        2.63100
C          4.23100        2.30200       -0.54000
S          3.33300        2.82900       -1.83300
H          3.37300       -0.15800        0.34300
H          4.82200        1.60500        1.41800
H          5.10000        1.52500       -0.78500
H          4.98600        3.14800       -0.31500
N          3.47700        4.30700        1.43000
C          2.96300        5.31200        2.37700
C          1.54700        5.68300        2.09300
O          0.88500        6.49400        2.75200
C          3.89700        6.46100        2.49000
C          3.47200        7.54200        3.44700
C          4.22300        7.09200        1.15500
C          3.32300        7.05800        4.85800
H          3.98700        4.55500        0.58700
H          2.90000        4.76200        3.35800
H          4.85200        6.04800        2.91800
H          4.29800        8.31300        3.41300
H          2.56000        8.06900        3.08300
H          5.32200        7.07100        1.02300
H          3.93800        8.18600        1.16100
H          3.77300        6.55800        0.31200
H          3.32300        5.96100        4.94400
H          2.44700        7.55200        5.33700
H          4.21000        7.39700        5.44300
N          0.81000        5.10200        0.98300
C         -0.62400        5.52100        0.79500
C         -1.43900        4.26900        0.78100
O         -2.66500        4.19500        0.70000
C         -0.69100        6.28300       -0.49000
C         -1.91900        6.96000       -0.93100
C         -3.20900        6.28300       -1.10900
N         -4.21600        7.24300       -1.69800
C         -5.51300        6.68500       -1.87000
N         -6.51000        7.54600       -2.41500
N         -5.83800        5.48800       -1.56900
H          1.30500        4.46800        0.40900
H         -0.96700        6.14800        1.61400
H          0.16600        7.02500       -0.55100
H         -0.45600        5.50800       -1.29600
H         -1.73800        7.55000       -1.89300
H         -2.07000        7.83900       -0.18500
H         -3.25900        5.40000       -1.73500
H         -3.69800        6.17200       -0.08500
H         -3.93900        8.20100       -1.93400
H         -6.56300        7.80100       -3.41900
H         -7.21200        7.90800       -1.70300
H         -6.83500        5.15400       -1.73200
H         -5.21300        4.76700       -1.16100
N         -0.81900        2.95400        0.86300
C         -1.56500        1.72700        0.79800
C         -1.78200        1.03800        2.09100
O         -2.27800       -0.14100        2.00900
C         -1.30600        0.85300       -0.37200
S          0.40600        0.35300       -0.63100
H          0.18400        2.97400        0.97800
H         -2.67200        2.08500        0.57700
H         -1.87700       -0.11800       -0.25600
H         -1.75500        1.28500       -1.31400
N         -1.47800        1.62000        3.36400
C         -1.78100        0.77400        4.51900
C         -3.10300        1.23500        5.08700
O         -3.52400        0.55700        6.06100
C         -0.72400        0.79500        5.56500
C         -0.48900        2.13200        6.17200
C         -1.16700        2.51500        7.30900
C          0.39100        3.04000        5.63600
C         -0.93100        3.77500        7.84600
C          0.63500        4.28000        6.14900
C         -0.04100        4.66500        7.28600
O          0.20100        5.92900        7.81900
H         -1.07900        2.56400        3.42400
H         -1.94400       -0.24800        4.15800
H          0.24000        0.53500        5.02400
H         -0.96900        0.07500        6.36300
H         -1.86600        1.88300        7.80000
H          0.92100        2.74000        4.74700
H         -1.46000        4.08600        8.73900
H          1.33300        4.93700        5.67800
H          1.11400        6.10500        8.20300
N         -3.79800        2.34900        4.54700
C         -5.05400        2.70400        5.16800
C         -6.13200        2.81000        4.18700
O         -7.32200        3.09900        4.43000
C         -4.93300        4.00900        5.95100
H         -3.38800        2.85800        3.74000
H         -5.28400        1.91000        5.91900
H         -5.93100        4.48600        6.01800
H         -4.50000        3.74900        6.94500
H         -4.24000        4.71900        5.48900
N         -5.80500        2.56200        2.80900
H         -5.23100        3.32400        2.35700
H         -6.11100        1.70500        2.31300
H          3.14000        0.53600       -1.81000
H          3.44900        1.36900       -4.37700
H          0.49400        1.05100       -4.54200
H          2.25400       -1.08900       -5.80800
H          1.22500       -2.60200       -3.63500
H          2.45700       -1.75200       -1.82600
H         -0.67200       -1.17000       -4.98200
H          0.97900       -0.84800       -7.21200
H         -2.16100       -7.12300       -2.21800
H         -3.31600       -7.05700       -0.40000
H         -0.24900       -5.09000        1.11500
H         -0.32200       -2.32500        0.48400
H          3.45500        0.58000        3.13400
H          4.99900       -1.10600        2.95400
