223
6y13_stapledHelix_conf39.pdb
C          1.68200        4.82700       -3.51200
C          1.40200        3.46200       -3.07600
C          2.13400        2.87200       -1.93700
C          2.69100        1.54400       -2.50700
C          1.50400        0.76300       -3.00500
C          0.30900        1.41200       -3.51900
C          0.02900        2.86300       -3.05500
C         -1.13900        3.49600       -3.71700
C          2.18200       -0.25100       -3.90200
C          3.15500        3.52300       -1.07800
H          2.41600        4.90600       -4.38700
H          2.24600        5.47100       -2.77600
H          0.86300        5.44600       -3.87100
H          3.16700        1.05500       -1.66500
H         -0.60600        0.85800       -3.18500
H         -1.24300        2.76800       -4.63900
H         -0.75500        4.38200       -4.38400
H          4.14600        3.33000       -1.67200
O          2.77700        0.51200       -4.94700
H          3.12400        4.65600       -1.20900
N          3.31700       -0.74500       -3.14200
C          4.17600       -1.66800       -3.72900
C          3.95200       -3.11500       -3.59400
O          4.48600       -3.87700       -4.41700
C          5.55800       -1.48900       -3.04300
C          6.14600       -0.16100       -3.17900
N          6.95600        0.30600       -4.17300
C          6.04600        0.89900       -2.30200
C          7.32600        1.57600       -3.91400
N          6.76200        1.92300       -2.76700
H          3.09100       -0.88700       -2.14000
H          4.35500       -1.46500       -4.80800
H          5.45500       -1.76200       -1.95000
H          6.28500       -2.21600       -3.43900
H          5.49700        0.96300       -1.35600
H          7.98700        2.14800       -4.58400
H          6.90500        2.88600       -2.34100
N          3.17100       -3.77200       -2.58200
C          3.05000       -5.20300       -2.55500
C          4.18500       -5.81000       -1.72000
C          4.28900       -5.32900       -0.33000
C          5.41200       -6.07300        0.41300
N          6.70300       -5.88300       -0.25600
C          1.74300       -5.86800       -2.36500
O          2.08700       -7.27400       -2.54400
H          2.74900       -3.11500       -1.91500
H          3.38000       -5.54000       -3.60700
H          5.13300       -5.55600       -2.23900
H          4.03600       -6.89400       -1.73200
H          3.42100       -5.32900        0.29200
H          4.65500       -4.23700       -0.30400
H          5.46300       -5.69500        1.46900
H          5.13900       -7.14100        0.51800
H          6.90600       -6.74900       -0.86200
H          7.47400       -5.80100        0.49800
H          6.67100       -5.00400       -0.83000
N          1.15400       -5.84400       -1.07500
C         -0.17300       -6.23800       -0.83800
C         -0.57700       -5.68200        0.59300
O         -1.91600       -6.16900        0.80700
C         -0.63600       -7.63100       -0.79200
C         -0.57200       -8.56200       -1.91300
C         -1.29600       -8.14500       -3.17300
C         -2.77000       -7.94600       -2.93400
H          1.72300       -6.52300       -0.42400
H         -0.81600       -5.69400       -1.57700
H         -1.72900       -7.60000       -0.45000
H         -0.16000       -8.16600        0.09800
H          0.33700       -9.08200       -2.16900
H         -1.23900       -9.46800       -1.55800
H         -0.77100       -7.30000       -3.61100
H         -1.21200       -8.99500       -3.90300
H         -3.26600       -7.85000       -3.92900
H         -3.02300       -7.03700       -2.36000
H         -3.16100       -8.84300       -2.43600
N         -0.68600       -4.30900        0.61000
C          0.40700       -3.42300        0.36800
C          0.78400       -2.84500        1.67300
O          0.19500       -3.13500        2.72200
C         -0.28200       -2.31400       -0.47300
C         -0.89800       -2.82500       -1.72100
C         -2.22200       -3.29000       -1.74200
C         -0.25500       -2.85700       -2.93200
C         -2.82200       -3.74300       -2.89900
C         -0.79100       -3.29300       -4.11300
C         -2.11100       -3.74500       -4.08000
O         -2.63000       -4.18300       -5.28900
H         -1.46800       -3.83300        1.05900
H          1.22600       -3.74700       -0.23800
H         -1.14200       -2.06300        0.17900
H          0.44900       -1.53000       -0.59400
H         -2.80900       -3.33100       -0.85100
H          0.75700       -2.50500       -2.94800
H         -3.84100       -4.10600       -2.92500
H         -0.23600       -3.29800       -5.02900
H         -2.11700       -4.63100       -6.03000
N          1.86900       -1.89300        1.85400
C          2.20100       -1.36100        3.15100
C          2.57300        0.03700        3.33900
O          2.81700        0.27100        4.72600
C          3.37200       -2.26600        3.62900
C          2.96000       -3.70500        3.71800
N          4.15400       -4.46000        4.16900
H          2.34300       -1.67100        0.97700
H          1.37500       -1.65000        3.87200
H          3.69900       -1.86400        4.60600
H          4.22400       -2.17600        2.95800
H          2.18200       -3.83900        4.46700
H          2.73600       -4.12400        2.73200
H          4.94800       -4.29600        3.47700
H          3.92000       -5.51800        4.16800
H          4.43800       -4.15700        5.14400
N          1.78400        1.04600        2.75800
C          2.07800        2.40900        2.99400
C          0.95300        3.28500        3.49100
O          1.12700        4.45000        3.76600
C          3.13000        3.04900        2.15400
S          3.39300        3.13800        0.53700
H          1.97400        0.91900        1.70600
H          2.61100        2.28900        4.05700
H          4.14100        2.59700        2.62900
H          3.33200        4.11100        2.61500
N         -0.37300        2.78000        3.65500
C         -1.56000        3.18800        4.15800
C         -2.80300        3.75000        3.75800
O         -3.77900        3.61600        4.63500
C         -1.44400        3.32400        5.70700
C         -0.54100        4.26000        6.31900
C         -1.01800        1.95300        6.30800
C         -0.65300        5.72000        6.12800
H         -0.35200        1.75200        3.21000
H         -2.01100        2.05500        4.30000
H         -2.48200        3.48000        6.09300
H          0.54700        3.91400        6.35900
H         -0.76700        4.13800        7.44400
H         -1.39900        1.96600        7.34500
H         -1.51900        1.14100        5.75100
H          0.07400        1.89100        6.36400
H         -1.73300        5.99400        6.26600
H         -0.14900        6.19800        5.30700
H         -0.17400        6.20000        7.04800
N         -3.30200        4.46800        2.62600
C         -4.78900        4.50400        2.42500
C         -5.20500        4.22900        1.05000
O         -6.23000        3.54800        0.82600
C         -5.40200        5.74300        3.01500
C         -6.95800        5.68400        2.92500
C         -7.43100        4.51600        3.75700
N         -8.86200        4.32600        3.84200
C         -9.25700        3.20000        4.67000
N        -10.62100        2.88800        4.87500
N         -8.38000        2.45300        5.25600
H         -2.64200        4.93300        2.05600
H         -5.20400        3.68300        3.04100
H         -5.11400        5.85300        4.07600
H         -5.10600        6.62000        2.42600
H         -7.15200        5.41600        1.87100
H         -7.34400        6.64300        3.22800
H         -7.10200        4.62200        4.82700
H         -7.04800        3.53300        3.40300
H         -9.56900        4.92200        3.36300
H        -11.09700        2.04300        4.46800
H        -11.25100        3.50100        5.47600
H         -7.33600        2.61600        5.17100
H         -8.63800        1.63700        5.84900
N         -4.56000        4.68700       -0.18000
C         -4.86900        3.93500       -1.37100
C         -4.17000        2.50000       -0.97800
O         -4.66100        1.52000       -1.46700
C         -4.17600        4.20500       -2.66800
S         -2.66200        3.85100       -3.19100
H         -4.00300        5.50800       -0.07200
H         -5.84900        3.57600       -1.36000
H         -4.57700        5.30100       -2.88900
H         -4.92300        3.71500       -3.43000
N         -3.10500        2.74800       -0.13700
C         -2.10000        2.08000        0.55600
C         -0.92900        2.98900        0.44600
O          0.15500        2.51400        0.68800
C         -1.84500        0.63000        0.37100
C         -2.97400       -0.20800        0.78900
C         -3.14700       -0.32100        2.19200
C         -3.83500       -0.92600        0.03900
C         -4.14100       -1.12700        2.70700
C         -4.84000       -1.73900        0.52800
C         -4.99700       -1.84300        1.89800
O         -6.00100       -2.65400        2.43000
H         -3.02200        3.82300        0.07800
H         -2.42700        1.95700        1.67400
H         -0.96500        0.38400        1.02600
H         -1.54700        0.50500       -0.68300
H         -2.50000        0.20900        2.87500
H         -3.72600       -0.87800       -1.04500
H         -4.28800       -1.21700        3.79600
H         -5.47300       -2.29000       -0.17800
H         -5.73600       -3.60000        2.63900
N         -0.99400        4.36700        0.08200
C          0.13200        5.26100       -0.00800
C          0.28700        6.32800        1.01200
O          1.37600        7.01600        0.90900
C         -0.13200        6.23900       -1.17700
H         -1.88800        4.85200       -0.17900
H          1.00500        4.69200       -0.03100
H         -0.84200        7.01700       -0.80800
H          0.78000        6.73700       -1.47700
H         -0.55600        5.63300       -1.96500
N         -0.58200        6.66300        2.02700
H         -0.43400        6.58100        3.04800
H         -1.53600        7.05600        1.75800
H          1.82700        2.91900       -4.02500
H          1.43900        2.44000       -1.21900
H          3.39900        1.78900       -3.33900
H          1.18100        0.15100       -2.10000
H          0.29200        1.41300       -4.65600
H         -0.25900        2.72300       -2.01600
H          1.56900       -0.96900       -4.39000
H          2.11700        1.01000       -5.45400
H          1.03500       -5.57700       -3.14200
H          2.18600       -7.70500       -1.68200
H          0.02200       -6.13000        1.36400
H         -2.54600       -5.53800        0.35700
H          3.61800        0.18100        2.91700
H          1.96500        0.34700        5.22100
