223
6y13_stapledHelix_conf0.pdb
C         -4.04600        2.42800        3.50500
C         -2.95600        1.93500        2.55600
C         -3.05500        0.44500        2.50000
C         -4.04000       -0.11900        1.57500
C         -4.69300        0.75300        0.54700
C         -4.61300        2.22400        0.87600
C         -3.12600        2.50600        1.19100
C         -2.87300        3.97500        1.03200
C         -6.15600        0.46300        0.35000
C         -1.65200       -0.13200        2.43000
H         -3.64600        2.41100        4.54200
H         -4.88600        1.68500        3.48800
H         -4.35700        3.46300        3.29400
H         -4.90800       -0.62600        2.11000
H         -5.26900        2.49600        1.70300
H         -2.87100        4.40700        2.07300
H         -3.76700        4.46900        0.55900
H         -1.44200       -0.46700        1.41200
O         -6.97800        1.52500        0.76900
H         -0.94200        0.70500        2.61600
N         -6.44700        0.08500       -1.00600
C         -5.89300       -1.15500       -1.44200
C         -4.55500       -1.04100       -2.12500
O         -4.26800       -0.18700       -2.95800
C         -6.91200       -1.63500       -2.52600
C         -6.52800       -2.90600       -3.11800
N         -5.73700       -3.08000       -4.22000
C         -6.89900       -4.16400       -2.68800
C         -5.63000       -4.38800       -4.45200
N         -6.33700       -5.07800       -3.52400
H         -6.25400        0.86700       -1.67400
H         -5.86100       -1.94400       -0.70700
H         -6.86000       -0.83900       -3.33300
H         -7.92200       -1.56900       -2.11900
H         -7.51700       -4.33400       -1.84500
H         -5.05500       -4.83300       -5.27300
H         -6.43500       -6.12500       -3.46100
N         -3.53900       -1.96700       -1.77900
C         -2.23000       -2.09500       -2.37400
C         -1.46200       -0.78200       -2.16100
C         -0.09000       -0.75400       -2.71100
C          0.50500        0.59700       -2.41200
N          1.89200        0.69200       -2.94100
C         -1.54400       -3.22100       -1.68400
O         -1.39000       -2.94400       -0.31200
H         -3.78600       -2.60700       -1.01200
H         -2.21400       -2.20000       -3.46500
H         -1.52700       -0.54300       -1.09400
H         -2.02700        0.03200       -2.67700
H         -0.08200       -0.82700       -3.83600
H          0.60400       -1.51200       -2.34600
H         -0.10300        1.36900       -2.92200
H          0.54900        0.85200       -1.35300
H          2.56600        0.76500       -2.12000
H          1.98200        1.58200       -3.55200
H          2.10600       -0.16800       -3.53700
N         -2.19600       -4.49200       -1.77300
C         -2.00700       -5.18000       -0.53200
C         -1.82400       -6.64900       -0.56300
O         -2.82900       -7.35700       -1.16200
C         -3.06600       -4.90400        0.53200
C         -4.45700       -5.26700        0.16100
C         -5.37800       -4.98000        1.34300
C         -5.40500       -3.55000        1.76800
H         -3.18500       -4.49300       -2.02400
H         -1.05400       -4.77900       -0.05000
H         -3.02000       -3.92200        0.98700
H         -2.77800       -5.61700        1.37200
H         -4.89400       -4.69800       -0.68400
H         -4.52600       -6.37600       -0.02600
H         -6.43100       -5.30100        1.10700
H         -5.10700       -5.57900        2.24500
H         -6.41300       -3.08300        1.69100
H         -4.75700       -2.92500        1.12900
H         -5.09000       -3.41100        2.83400
N         -0.47400       -7.07900       -0.91800
C         -0.24200       -8.34200       -0.13800
C         -0.09700       -8.01600        1.28100
O         -0.47600       -8.81400        2.14200
C          0.81900       -9.11300       -0.81900
C          2.06900       -8.33100       -0.89600
C          2.21700       -7.41500       -1.94200
C          3.06500       -8.50300        0.01200
C          3.39600       -6.70800       -2.00400
C          4.25000       -7.78700       -0.05600
C          4.40700       -6.87400       -1.08800
O          5.60300       -6.14800       -1.15700
H          0.25300       -6.38700       -0.73200
H         -1.23500       -8.85500       -0.25200
H          0.50400       -9.27900       -1.89600
H          1.02200      -10.10300       -0.34800
H          1.40300       -7.31500       -2.64600
H          2.89100       -9.24100        0.80100
H          3.54100       -5.98900       -2.80600
H          5.03600       -7.92400        0.66500
H          5.81700       -5.72800       -2.04900
N          0.49100       -6.80200        1.81000
C          0.42500       -6.40900        3.19300
C          0.95200       -5.02700        3.43300
O          0.79500       -4.75800        4.80000
C          1.15500       -7.41300        4.09800
C          2.59400       -7.58500        3.82000
N          3.14700       -8.60900        4.78400
H          0.98300       -6.26000        1.09700
H         -0.62300       -6.50100        3.56300
H          0.57200       -8.33500        4.09300
H          1.03900       -6.99000        5.12900
H          2.73800       -8.00500        2.80900
H          3.20800       -6.68500        3.92200
H          2.93400       -9.58400        4.38000
H          2.62300       -8.49200        5.71900
H          4.18400       -8.45200        4.89700
N          0.37900       -4.07600        2.57500
C          0.84600       -2.73700        2.57500
C          2.30200       -2.56500        2.27900
O          3.17200       -3.42400        2.35000
C          0.40300       -1.84800        3.69500
S         -1.31500       -1.35200        3.71700
H          0.47900       -4.44500        1.59200
H          0.35200       -2.26900        1.66500
H          0.72000       -2.24500        4.69600
H          1.07100       -0.91800        3.60100
N          2.71300       -1.27600        1.86500
C          4.12700       -0.90600        1.58900
C          4.14500        0.53800        1.83100
O          3.04800        0.97200        2.38200
C          4.41200       -1.12900        0.10900
C          4.17400       -2.55100       -0.33400
C          5.88500       -0.84800       -0.13100
C          4.50500       -2.62800       -1.81700
H          1.97800       -0.58000        1.74900
H          4.76900       -1.55500        2.15800
H          3.77400       -0.46900       -0.48200
H          4.79800       -3.30000        0.16200
H          3.07600       -2.77300       -0.28500
H          6.04200        0.09300       -0.67500
H          6.44700       -0.81800        0.82400
H          6.37800       -1.68300       -0.70800
H          4.57600       -1.59600       -2.19700
H          5.50800       -3.07800       -1.98600
H          3.71700       -3.12300       -2.41300
N          5.07000        1.55000        1.59700
C          4.59400        2.91000        2.00700
C          3.41800        3.14000        1.04600
O          3.16300        2.34100        0.13900
C          5.57800        3.96700        1.85000
C          6.09200        4.20200        0.43900
C          7.08500        5.32900        0.51800
N          7.62800        5.63200       -0.76900
C          8.49700        4.82000       -1.52100
N          8.94200        5.30900       -2.80300
N          8.91800        3.67100       -1.11400
H          5.96900        1.44700        1.20900
H          4.11700        2.84300        2.98300
H          6.52700        3.79800        2.45200
H          5.16500        4.94100        2.20800
H          5.26200        4.59300       -0.21500
H          6.46800        3.24500        0.08700
H          6.62700        6.25100        0.93700
H          7.90500        5.08700        1.24700
H          7.35300        6.55300       -1.20100
H          8.93600        4.72200       -3.66200
H          9.29700        6.30500       -2.89600
H          8.69200        3.21200       -0.22800
H          9.56000        3.15000       -1.75300
N          2.56800        4.26400        1.14800
C          1.40300        4.38700        0.24900
C          1.29300        5.64900       -0.43600
O          2.12100        6.57700       -0.14000
C          0.14400        4.12000        1.10300
S         -1.35400        4.34700        0.21000
H          2.81100        4.95100        1.85700
H          1.44500        3.55100       -0.50800
H          0.25100        4.86200        1.94900
H          0.29400        3.10000        1.55100
N          0.33500        5.92700       -1.41600
C          0.21200        7.20500       -2.12000
C         -0.82100        8.04700       -1.53000
O         -1.47700        7.56300       -0.54600
C          0.11900        6.85800       -3.55600
C         -0.02700        7.92800       -4.53200
C         -1.33100        8.23600       -4.95700
C          1.00900        8.66100       -5.06900
C         -1.57700        9.23200       -5.87600
C          0.76800        9.66600       -5.99400
C         -0.53000        9.95000       -6.39800
O         -0.77300       10.96400       -7.33600
H         -0.36400        5.20200       -1.74000
H          1.21100        7.70300       -1.93500
H          1.09200        6.33300       -3.81200
H         -0.64000        6.03000       -3.74600
H         -2.16600        7.67000       -4.54900
H          2.01000        8.41600       -4.73400
H         -2.60900        9.40800       -6.15100
H          1.59700       10.22900       -6.39500
H         -1.69100       11.02200       -7.77300
N         -1.17700        9.35700       -1.92800
C         -2.21500       10.07700       -1.22300
C         -3.46000       10.26900       -1.98900
O         -4.39400       10.89400       -1.39000
C         -1.61300       11.37200       -0.71600
H         -0.67900        9.79600       -2.70500
H         -2.51200        9.47500       -0.32500
H         -1.91600       12.16800       -1.43700
H         -2.04800       11.58500        0.27100
H         -0.51600       11.27400       -0.71100
N         -3.67000        9.81000       -3.31500
H         -3.46100       10.51500       -4.08100
H         -4.00100        8.86100       -3.56800
H         -1.98100        2.21600        2.98700
H         -3.38900        0.14800        3.54600
H         -3.54300       -0.94400        1.01900
H         -4.20300        0.64200       -0.42900
H         -4.87900        2.77800       -0.06700
H         -2.51600        1.95800        0.47700
H         -6.36900       -0.41200        1.02900
H         -7.56600        1.21600        1.52500
H         -0.51700       -3.42000       -2.13900
H         -1.97700       -2.17500       -0.14200
H         -1.88600       -6.95500        0.55300
H         -2.45200       -8.07300       -1.72600
H          2.07500       -5.15800        3.24700
H         -0.12800       -4.98900        5.06100
