223
6y13_stapledHelix_conf11.pdb
C          0.04800       -1.62800        3.55700
C          0.07200       -0.29900        2.94100
C          0.20200       -0.31700        1.41500
C          0.84700        1.05600        1.12700
C         -0.14600        2.10900        1.46700
C         -1.31000        1.65000        2.24900
C         -0.89400        0.68900        3.39600
C         -1.94200        0.60600        4.40700
C          0.67100        3.16400        2.26600
C          1.07700       -1.40900        0.93100
H          1.06300       -1.96500        3.94800
H         -0.19700       -2.39600        2.80700
H         -0.59100       -1.69800        4.47400
H          1.69600        1.09900        1.85800
H         -1.86500        2.51300        2.65200
H         -2.25100        1.74800        4.54700
H         -1.41700        0.54700        5.48700
H          2.10900       -0.97600        0.75400
O         -0.11100        4.19600        2.71400
H          1.25200       -2.26800        1.57100
N          1.78700        3.56200        1.43700
C          2.81300        4.33900        2.14200
C          3.98900        4.48000        1.19500
O          5.07300        4.97000        1.49900
C          3.34500        3.64500        3.36100
C          4.38900        4.40600        4.09200
N          5.71500        4.42500        3.97900
C          4.08300        5.28600        5.14100
C          6.29000        5.25800        4.88400
N          5.25100        5.76600        5.57900
H          1.37600        4.20000        0.68300
H          2.48300        5.33800        2.41100
H          3.85800        2.72200        2.97800
H          2.56300        3.38600        4.10700
H          3.10700        5.52500        5.51200
H          7.34400        5.46300        5.01900
H          5.39300        6.45300        6.35800
N          3.87400        4.03200       -0.16700
C          4.95500        3.99900       -1.11000
C          4.89100        2.67900       -1.88500
C          5.02200        1.50000       -0.94100
C          4.93700        0.23800       -1.77900
N          5.04400       -0.96900       -0.91200
C          5.08100        5.11100       -2.07700
O          6.20500        4.77400       -2.89300
H          2.95000        3.72700       -0.44800
H          5.95400        3.98300       -0.55800
H          5.68500        2.59800       -2.64500
H          3.91200        2.62800       -2.43600
H          4.23500        1.48100       -0.16900
H          6.02000        1.54900       -0.49100
H          4.02000        0.18000       -2.37700
H          5.78100        0.20400       -2.52500
H          4.37800       -1.70900       -1.29700
H          4.78200       -0.71800        0.08700
H          6.06700       -1.30800       -0.97000
N          4.04200        5.46700       -2.91800
C          2.90100        6.18200       -2.44100
C          2.10400        6.55100       -3.68300
O          2.92400        7.29700       -4.50000
C          3.29300        7.47300       -1.74600
C          2.16200        8.28800       -1.20500
C          2.66600        9.54800       -0.49000
C          1.41700       10.26300       -0.01200
H          4.29800        5.81600       -3.86400
H          2.33500        5.60100       -1.71800
H          3.85800        8.14900       -2.44700
H          4.05600        7.26600       -0.94400
H          1.43100        8.63500       -1.94900
H          1.60400        7.66100       -0.45700
H          3.22300        9.25900        0.44100
H          3.22600       10.16600       -1.17900
H          1.03000        9.74200        0.89400
H          0.65800       10.29900       -0.82300
H          1.69500       11.28600        0.30400
N          1.50700        5.47600       -4.38900
C          0.12800        5.26700       -4.13000
C         -0.29600        3.94100       -4.63600
O         -1.53200        3.73500       -4.66400
C         -0.81900        6.21600       -4.86400
C         -0.69700        7.62800       -4.64000
C          0.08800        8.38900       -5.53700
C         -1.32800        8.26900       -3.58100
C          0.21300        9.74800       -5.35100
C         -1.19400        9.64200       -3.40500
C         -0.42600       10.39800       -4.28500
O         -0.29700       11.77700       -4.10700
H          1.72700        5.55900       -5.42200
H         -0.14900        5.30600       -3.06300
H         -1.86900        5.85400       -4.66200
H         -0.71100        6.03600       -5.97900
H          0.56800        7.85700       -6.35100
H         -1.94100        7.72800       -2.86700
H          0.81700       10.34900       -6.04400
H         -1.69000       10.12200       -2.58900
H          0.41800       12.07200       -3.41700
N          0.50200        2.86300       -5.08500
C         -0.17600        1.72700       -5.65400
C         -0.51000        0.66500       -4.58900
O         -1.28100        1.19700       -3.58100
C          0.39400        1.14200       -6.88900
C          1.78200        0.61900       -6.83300
N          2.10000        0.07300       -8.20200
H          1.50900        2.96800       -4.97000
H         -1.24100        2.04800       -5.97100
H          0.28300        1.89300       -7.72100
H         -0.30600        0.30900       -7.19600
H          2.46500        1.47500       -6.65100
H          1.96100       -0.18200       -6.12400
H          1.27500       -0.57000       -8.46600
H          2.99100       -0.51100       -8.13500
H          2.19300        0.87800       -8.88100
N          0.49400       -0.25000       -4.27000
C          0.26000       -1.30200       -3.32400
C         -1.10600       -1.85400       -3.31000
O         -2.10500       -1.26800       -3.78300
C          0.70100       -0.85400       -1.93400
S          0.48000       -2.10400       -0.66400
H          1.35400        0.26200       -3.89400
H          0.92900       -2.18400       -3.56800
H          1.82000       -0.73000       -2.03700
H          0.23500        0.10200       -1.72200
N         -1.44500       -3.14600       -2.75600
C         -2.88400       -3.48400       -2.75400
C         -3.30800       -3.74300       -1.35100
O         -2.43600       -4.11800       -0.56600
C         -3.03200       -4.65300       -3.68000
C         -4.47500       -5.08500       -3.76300
C         -2.10500       -5.79300       -3.41200
C         -4.59400       -6.27000       -4.73000
H         -0.69400       -3.70600       -2.43000
H         -3.51800       -2.66600       -3.11900
H         -2.73900       -4.25800       -4.70300
H         -4.84500       -5.36600       -2.75800
H         -5.13500       -4.29100       -4.16000
H         -2.63900       -6.76200       -3.26600
H         -1.40400       -6.00500       -4.27900
H         -1.43100       -5.59700       -2.53800
H         -5.08700       -5.96300       -5.67500
H         -3.55600       -6.57200       -5.04900
H         -5.05900       -7.10100       -4.20400
N         -4.62600       -3.58800       -0.86600
C         -5.12400       -3.70100        0.45100
C         -4.07300       -3.22300        1.41500
O         -2.98600       -2.71700        1.14200
C         -5.66900       -4.98600        0.88400
C         -6.86400       -5.44500        0.02600
C         -7.36200       -6.79200        0.52900
N         -6.35100       -7.80800        0.43400
C         -6.71100       -9.12100        0.91500
N         -5.75600      -10.16100        0.83700
N         -7.88600       -9.31600        1.39300
H         -5.31600       -3.35000       -1.62800
H         -5.93300       -2.89100        0.64100
H         -6.15000       -4.85300        1.89700
H         -4.96200       -5.80400        1.03700
H         -7.70800       -4.74400        0.20600
H         -6.65100       -5.42600       -1.05300
H         -7.63900       -6.70800        1.59900
H         -8.29000       -7.02800       -0.03200
H         -5.40200       -7.70100        0.05700
H         -5.98000      -10.96700        0.19800
H         -4.85700      -10.21200        1.34100
H         -8.58000       -8.52500        1.43600
H         -8.21400      -10.23400        1.75900
N         -4.30000       -3.33600        2.83100
C         -3.33700       -3.00600        3.85000
C         -2.83900       -4.26100        4.45800
O         -2.44100       -4.21100        5.64000
C         -3.62500       -1.95100        4.81700
S         -3.43500       -0.25600        4.44600
H         -5.21800       -3.65800        3.10800
H         -2.40400       -2.61000        3.27300
H         -4.62200       -2.16000        5.36900
H         -2.90800       -2.16800        5.70900
N         -2.77500       -5.51800        3.80100
C         -2.28300       -6.62100        4.59100
C         -0.81000       -6.44100        4.89300
O         -0.33000       -7.37300        5.62900
C         -2.48500       -7.97300        4.00000
C         -1.81500       -8.17100        2.69000
C         -2.49400       -7.92500        1.47600
C         -0.51900       -8.60600        2.54200
C         -1.88200       -8.11300        0.27600
C          0.11200       -8.79900        1.33200
C         -0.57800       -8.55100        0.18600
O          0.02200       -8.73600       -1.07500
H         -3.08000       -5.56400        2.81400
H         -2.77700       -6.57000        5.62500
H         -3.59800       -8.13600        3.79500
H         -2.20600       -8.76400        4.71700
H         -3.51300       -7.59000        1.60900
H          0.07800       -8.82500        3.41800
H         -2.46500       -7.90800       -0.63100
H          1.12900       -9.14500        1.28000
H          0.91900       -8.32900       -1.32400
N         -0.02800       -5.38500        4.44200
C          1.37800       -5.37100        4.85500
C          1.49300       -4.27900        5.89000
O          0.51900       -3.56900        6.23200
C          2.32800       -5.15300        3.72800
H         -0.43900       -4.65200        3.83800
H          1.60600       -6.29900        5.39500
H          1.85400       -4.41400        3.02300
H          2.51900       -6.07700        3.16700
H          3.30300       -4.75000        4.09800
N          2.74500       -4.01300        6.53600
H          3.46000       -3.50400        5.98100
H          2.91800       -4.31800        7.51400
H          1.13900        0.10200        3.22100
H         -0.74100       -0.32500        0.88600
H          1.18700        1.17400        0.11000
H         -0.45500        2.64700        0.54600
H         -1.98500        1.07200        1.61300
H         -0.16900        1.48000        3.95300
H          1.11500        2.59000        3.09700
H          0.17000        4.49300        3.62200
H          5.49100        6.02200       -1.52200
H          7.00900        4.65400       -2.30200
H          1.34700        7.27800       -3.29400
H          3.13100        6.90800       -5.37400
H         -1.31300       -0.00500       -5.15400
H         -0.84400        1.78300       -2.95100
