37
CSD_AJIGUZ_imatinib_manual.pdb
O          5.49900        1.33500        3.65500
N          4.58600       -0.73300        3.98300
N          9.27200        0.77600        9.38900
N          0.44200        1.80800        3.56600
N          1.14600        2.00700        5.77300
N         -0.53400        3.43900        4.83700
N          3.33500        0.37200        8.84800
N          9.06200        2.37000       11.79500
C          2.54600        0.55300        3.73500
C          5.50300        0.24400        4.22400
C          6.15600       -0.82800        6.40900
C          6.50500       -0.06600        5.29900
C          1.02400        2.63700        6.95100
C          1.92300        2.15100        8.02500
C          7.77000        0.52800        5.26300
C          0.36900        2.43800        4.77900
C          3.35000       -0.49800        3.31300
C          8.29500       -0.38600        7.44300
C          7.97300        1.07700       10.00300
C         10.27300        0.68100       10.45600
C          2.90100       -1.36000        2.32100
C          7.04000       -0.98500        7.47000
C          2.51000        0.89000        7.92700
C          1.28100        0.74100        3.18200
C          2.20900        2.91400        9.15500
C          1.63100       -1.17700        1.78500
C          9.23000       -0.48300        8.62700
C          0.79600       -0.14800        2.20200
C         10.38600        1.99600       11.20200
C          8.65200        0.35800        6.32000
C          3.07800        2.40600       10.10400
C          3.61700        1.14800        9.90700
C          8.01900        2.40500       10.72300
C         -0.60100       -0.01300        1.65700
C          0.11500        3.66800        7.13400
C         -0.64100        4.02400        6.02800
C          9.14200        3.66800       12.51800
