31
CSD_GAYLOH_ATP.pdb
P         10.28300        1.54500        2.51500
P         11.86200       -0.80800        3.19800
P         14.22200        0.78800        2.44500
O          8.78900        1.72000        2.93300
O         11.02800        2.71200        3.08000
O         10.39300        1.21500        1.09800
O         10.68700        0.23800        3.31600
O         11.71300       -1.73600        4.34700
O         11.89400       -1.34200        1.84100
O         13.16800        0.06700        3.44700
O         15.31600       -0.22200        2.26900
O         13.52500        1.08800        1.15800
O         14.56900        1.98800        3.20100
C          6.63700        2.31100        5.37800
C          6.66400        3.33200        4.27000
C          6.01800        2.65500        3.16600
C          6.44000        1.20800        3.31900
C          7.77900        0.69300        2.59800
O          5.97900        4.53100        4.77400
O          4.59700        2.62000        3.26800
O          6.72100        1.04300        4.75500
N          8.07800        2.18900       10.30200
C          6.84900        2.16200        9.70800
N          6.53200        2.19600        8.39700
C          7.61900        2.35600        7.70700
C          8.95300        2.33800        8.15400
C          9.17500        2.27600        9.54900
N         10.34700        2.31000       10.12600
N          9.84700        2.46000        7.07500
C          9.09500        2.49400        6.02900
N          7.72400        2.43100        6.31900
