189
215d_DNA_conf49.pdb
O          5.33300       -2.50000        3.67400
C          5.68500       -3.43100        2.70200
C          7.16300       -3.29000        2.40800
O          7.52700       -4.24400        1.41900
C          7.52500       -1.97900        1.76400
O          6.54700       -1.65300        0.85100
C          8.80700       -2.38900        1.03300
C          8.81200       -3.87200        1.12300
N          9.29200       -4.49900       -0.10700
C          8.37500       -4.80200       -1.04800
O          7.15700       -4.53300       -0.82900
N          8.72700       -5.37800       -2.20400
C         10.01100       -5.69000       -2.49800
N         10.37700       -6.30200       -3.73200
C         10.94900       -5.37400       -1.52000
C         10.58300       -4.77400       -0.31900
P          6.15200       -0.00400        0.81000
O          4.60600        0.26400        1.42200
O          7.14200        0.72800        1.67500
O          6.29900        0.57900       -0.77300
C          5.14600        1.23600       -1.22300
C          4.47500        0.33600       -2.25900
O          5.40800        0.10000       -3.25400
C          3.27100        0.93600       -2.84800
O          2.70900        1.95000       -2.08700
C          3.81100        1.50200       -4.17600
C          4.86000        0.42000       -4.46200
N          4.29000       -0.74200       -5.11000
C          3.64100       -1.79900       -4.56700
N          3.27800       -2.67000       -5.53900
C          3.68000       -2.19600       -6.71000
C          3.53500       -2.73300       -7.97100
O          2.94700       -3.83400       -8.12200
N          4.04900       -2.02300       -8.99600
C          4.67600       -0.83300       -8.76300
N          5.17900       -0.17000       -9.92300
N          4.80400       -0.33100       -7.52200
C          4.30700       -1.00100       -6.45100
P          1.03300        1.95700       -2.28200
O          0.75500        2.82800       -3.72200
O          0.61100        0.52800       -2.62000
O          0.14200        2.49500       -1.02200
C          0.69300        2.57200        0.22300
C         -0.28300        3.22500        1.16500
O         -1.50500        2.51600        1.26200
C          0.20900        3.07200        2.57700
O          0.35400        1.73300        2.85800
C         -1.10500        3.49900        3.31200
C         -2.16900        3.16600        2.28200
N         -3.20100        2.38800        2.89700
C         -4.08700        2.97400        3.72300
O         -3.98800        4.22900        3.95100
N         -5.07900        2.25300        4.31400
C         -5.21000        0.92000        4.09100
O         -6.12800        0.29400        4.65000
C         -4.30500        0.28700        3.24000
C         -4.42300       -1.15200        2.98600
C         -3.30700        1.06400        2.65800
P          1.58900        1.33800        3.89700
O          1.25800        2.12300        5.38200
O          2.95000        1.83900        3.48700
O          1.57100       -0.33600        4.10100
C          0.99900       -0.98300        2.99800
C          0.84900       -2.42300        3.28900
O          0.02000       -2.59700        4.41700
C          0.16400       -3.23400        2.24400
O         -0.84300       -2.59300        1.57900
C         -0.36000       -4.39400        3.09600
C          0.02800       -3.98700        4.48500
N         -0.94000       -4.40300        5.47900
C         -1.49500       -5.64300        5.59100
N         -2.35300       -5.66300        6.63800
C         -2.36500       -4.44900        7.21300
C         -3.06200       -3.94000        8.30000
N         -3.97300       -4.74100        9.05800
N         -2.88200       -2.66400        8.66100
C         -2.01000       -1.90600        7.93500
N         -1.33400       -2.39900        6.88300
C         -1.47700       -3.67100        6.47800
P         -0.65300       -2.65600       -0.08100
O         -0.17400       -4.25600       -0.46000
O          0.45600       -1.76200       -0.58600
O         -2.12200       -2.31700       -0.88600
C         -2.04900       -2.52500       -2.24700
C         -3.34100       -2.33500       -2.96700
O         -4.34900       -3.19000       -2.54100
C         -3.90400       -0.93900       -2.86500
O         -3.00500        0.06700       -2.71800
C         -4.74300       -1.06200       -1.61500
C         -5.22800       -2.48900       -1.73300
N         -6.59100       -2.55600       -2.20700
C         -6.90400       -3.15300       -3.36800
O         -6.00200       -3.68600       -4.09700
N         -8.18800       -3.19100       -3.77300
C         -9.18300       -2.64600       -3.04700
N        -10.55000       -2.67500       -3.45300
C         -8.84500       -2.03000       -1.84600
C         -7.53000       -1.98500       -1.42200
P         -3.26000        1.17400       -3.98600
O         -4.21300        0.60800       -5.02600
O         -1.78900        1.46200       -4.79200
O         -3.84600        2.65300       -3.46800
C         -2.80700        3.51100       -3.16800
C         -3.20100        4.90700       -2.81800
O         -3.87800        5.59000       -3.79100
C         -1.90200        5.66200       -2.55000
O         -1.90500        6.29400       -1.33100
C         -1.82000        6.62100       -3.72600
C         -3.31300        6.83500       -3.97700
N         -3.73800        7.83400       -3.04600
C         -3.07300        8.97500       -2.79700
N         -3.74300        9.69000       -1.86900
C         -4.84500        9.01100       -1.51400
C         -5.86500        9.25300       -0.63400
O         -5.93200       10.29000        0.06700
N         -6.83200        8.32400       -0.53300
C         -6.84600        7.18400       -1.24300
N         -7.88900        6.20600       -1.12100
N         -5.82300        6.97300       -2.10600
C         -4.83000        7.84100       -2.26400
H          4.47000       -2.77500        4.07900
H          5.46200       -4.45900        3.02100
H          5.11800       -3.16000        1.78600
H          7.74700       -3.50900        3.31400
H          7.75100       -1.23300        2.52400
H          8.79800       -2.00500       -0.01300
H          9.66300       -1.98200        1.60300
H          9.48400       -4.18700        1.95700
H         11.04300       -7.09800       -3.78800
H          9.96500       -5.95300       -4.64300
H         11.98700       -5.61300       -1.73200
H         11.33200       -4.53200        0.43000
H          5.49100        2.13700       -1.77100
H          4.49200        1.55600       -0.41900
H          4.22300       -0.64700       -1.80300
H          2.44100        0.25000       -3.12500
H          3.08000        1.43400       -4.98100
H          4.31700        2.46000       -4.04000
H          5.66200        0.81200       -5.11800
H          3.42000       -1.97300       -3.54200
H          6.16600        0.14400      -10.03100
H          4.45800       -0.01800      -10.69000
H          5.29000        0.57900       -7.39100
H          1.57300        3.25900        0.17600
H          1.01700        1.58300        0.53300
H         -0.45700        4.28500        0.93700
H          1.01700        3.73100        2.88700
H         -1.11400        4.58400        3.47200
H         -1.17700        2.89100        4.21600
H         -2.67300        4.11000        1.92000
H         -5.77700        2.72100        4.96900
H         -5.19400       -1.42900        2.22900
H         -4.74500       -1.67000        3.93900
H         -3.48300       -1.63800        2.68700
H         -2.61800        0.58200        2.00800
H          0.11300       -0.47700        2.62200
H          1.81800       -0.91100        2.21500
H          1.81400       -2.90600        3.53800
H          0.90400       -3.61200        1.51500
H         -1.44600       -4.53300        2.96600
H          0.22400       -5.30400        2.85400
H          1.04900       -4.32500        4.70700
H         -1.30500       -6.50400        4.95300
H         -5.00200       -4.54900        9.10000
H         -3.64200       -5.56600        9.60800
H         -1.85400       -0.85900        8.21800
H         -1.75200       -3.59100       -2.40700
H         -1.26900       -1.93500       -2.75400
H         -3.17100       -2.54100       -4.03400
H         -4.59600       -0.73400       -3.71300
H         -5.54500       -0.31400       -1.53200
H         -4.10400       -0.96000       -0.71400
H         -5.19000       -2.94900       -0.72600
H        -10.94300       -1.76100       -3.82500
H        -11.14600       -3.52400       -3.39600
H         -9.58100       -1.57100       -1.20000
H         -7.28200       -1.49800       -0.47100
H         -2.30500        3.08500       -2.26500
H         -2.09700        3.50100       -3.99300
H         -3.78400        4.96200       -1.86800
H         -1.01700        5.03100       -2.60200
H         -1.27100        5.84800       -0.68300
H         -1.29900        6.19700       -4.60400
H         -1.30500        7.51100       -3.36600
H         -3.41200        7.14800       -5.04600
H         -2.14300        9.34600       -3.22700
H         -7.62500        5.26000       -0.73800
H         -8.86400        6.38000       -1.38700
H         -5.85300        6.08400       -2.64600
