189
215d_DNA_conf22.pdb
O          1.71400        4.39800       -6.08300
C          0.45300        4.15900       -5.53600
C          0.11200        2.69800       -5.77500
O          0.11800        2.49400       -7.14400
C         -1.29600        2.42500       -5.32000
O         -2.08300        3.51200       -5.60200
C         -1.64300        1.24700       -6.26000
C         -0.71800        1.43300       -7.44200
N          0.04600        0.23500       -7.73700
C          1.35500        0.24300       -8.03400
O          1.95400        1.35700       -8.05600
N          2.02100       -0.89500       -8.30200
C          1.37000       -2.08800       -8.27800
N          2.01900       -3.32000       -8.55300
C          0.01600       -2.14200       -7.97400
C         -0.60700       -0.94200       -7.70900
P         -3.16000        3.96600       -4.42200
O         -4.00800        5.32700       -5.01700
O         -4.20800        2.89400       -4.21100
O         -2.50700        4.33200       -2.93600
C         -2.46200        5.73000       -2.71000
C         -2.13900        5.95400       -1.27500
O         -2.05700        7.30100       -0.90300
C         -0.75600        5.39700       -0.99600
O         -0.37400        4.44300       -1.89700
C          0.11100        6.62200       -1.17200
C         -0.86100        7.69800       -1.42000
N         -0.44700        9.01800       -1.03200
C         -0.19200       10.11100       -1.77600
N          0.17100       11.14800       -0.98700
C          0.15300       10.72900        0.28800
C          0.43500       11.36800        1.48000
O          0.79000       12.59100        1.51200
N          0.32200       10.65200        2.63400
C         -0.05900        9.34100        2.60200
N         -0.16100        8.63100        3.85400
N         -0.32600        8.74800        1.42700
C         -0.23400        9.40000        0.23900
P         -0.00700        3.02100       -1.06600
O          1.08700        2.07100       -1.95400
O          0.54400        3.39200        0.28200
O         -1.47100        2.17400       -0.84900
C         -1.48100        1.53100        0.38900
C         -2.64500        0.59400        0.46200
O         -2.59300       -0.02100        1.69600
C         -2.49100       -0.57300       -0.48900
O         -3.59400       -1.40500       -0.32000
C         -1.34100       -1.29300        0.19500
C         -1.77200       -1.11400        1.64600
N         -2.58100       -2.25300        2.10700
C         -3.77300       -2.08300        2.70500
O         -4.16800       -0.89800        2.84700
N         -4.54100       -3.08500        3.14500
C         -4.14300       -4.36000        3.00700
O         -4.83600       -5.31800        3.40700
C         -2.93400       -4.59800        2.40400
C         -2.41600       -5.99700        2.21700
C         -2.16000       -3.52500        1.95700
P         -4.44400       -1.76500       -1.69500
O         -6.05200       -2.09100       -1.21300
O         -4.54400       -0.48500       -2.52600
O         -3.87700       -3.04400       -2.59700
C         -3.52300       -4.11100       -1.82600
C         -2.69400       -5.14500       -2.54100
O         -3.42000       -5.65700       -3.59200
C         -1.49800       -4.57300       -3.22800
O         -0.72300       -3.71900       -2.49600
C         -2.12100       -3.93200       -4.45100
C         -3.27100       -4.85400       -4.69900
N         -4.50400       -4.22400       -5.06400
C         -5.71500       -4.75300       -4.71200
N         -6.70400       -3.97400       -5.17900
C         -6.17600       -2.94300       -5.83000
C         -6.74600       -1.87600       -6.48400
N         -8.15700       -1.74500       -6.54300
N         -5.89700       -0.99300       -7.04800
C         -4.54300       -1.17000       -6.96200
N         -4.00300       -2.21900       -6.32000
C         -4.79600       -3.12300       -5.74300
P          0.90700       -4.16900       -2.46600
O          1.07700       -5.61500       -3.33600
O          1.74700       -3.13700       -3.21900
O          1.47000       -4.39700       -0.90900
C          2.65700       -5.08300       -0.83900
C          3.17500       -5.23600        0.60000
O          4.34300       -5.93300        0.51900
C          3.51400       -3.85200        1.16500
O          3.30000       -3.82400        2.55000
C          4.99700       -3.81200        0.95100
C          5.34800       -5.26700        1.17500
N          5.32100       -5.66100        2.56400
C          6.10600       -5.09000        3.49000
O          6.91400       -4.17200        3.18400
N          6.09000       -5.44900        4.79500
C          5.27200       -6.41500        5.24300
N          5.27300       -6.77700        6.61600
C          4.44600       -7.03300        4.32800
C          4.48600       -6.64400        3.00800
P          2.05000       -2.81100        2.97800
O          0.84900       -3.70300        3.22500
O          1.79000       -1.74400        1.67300
O          2.28500       -1.86600        4.32200
C          1.97700       -2.50900        5.51700
C          1.15100       -1.68800        6.43500
O          1.74200       -0.46100        6.82000
C          1.00300       -2.33700        7.78200
O          0.02500       -3.32700        7.81200
C          0.58400       -1.13900        8.64500
C          0.67500       -0.00100        7.63400
N          1.01100        1.19600        8.32300
C          0.97300        1.46900        9.64700
N          1.37800        2.75500        9.84000
C          1.67500        3.31400        8.66500
C          2.12100        4.52900        8.19400
O          2.34000        5.44800        9.05300
N          2.32600        4.76800        6.89400
C          2.09800        3.80200        5.96900
N          2.31600        4.04900        4.57800
N          1.66500        2.62100        6.42000
C          1.44400        2.33200        7.71200
H          2.23300        3.54900       -5.94800
H         -0.33800        4.78800       -5.95700
H          0.56200        4.28100       -4.44900
H          0.83500        2.04900       -5.23800
H         -1.38500        2.09200       -4.27000
H         -1.53900        0.28200       -5.76600
H         -2.68300        1.43600       -6.60700
H         -1.28900        1.65200       -8.37900
H          3.02700       -3.50200       -8.37200
H          1.48100       -4.11600       -8.96600
H         -0.53100       -3.06300       -7.94600
H         -1.66100       -0.98600       -7.47200
H         -3.44300        6.16300       -3.00100
H         -1.69600        6.08100       -3.43300
H         -2.92100        5.48100       -0.65800
H         -0.76400        5.04400        0.05600
H          0.86000        6.47700       -1.98300
H          0.71300        6.72600       -0.24900
H         -1.00200        7.75700       -2.54000
H         -0.27200       10.14800       -2.87300
H         -1.04000        8.57700        4.39100
H          0.70200        8.14400        4.24000
H         -0.61600        7.73400        1.47300
H         -0.51500        1.01300        0.49800
H         -1.49900        2.26500        1.22800
H         -3.62000        1.10700        0.33100
H         -2.30300       -0.27500       -1.51400
H         -0.35900       -0.88000       -0.03800
H         -1.34600       -2.38500        0.02900
H         -0.83800       -1.04300        2.22700
H         -5.46100       -2.85600        3.60100
H         -3.10200       -6.68700        2.70600
H         -1.39600       -5.99900        2.66100
H         -2.28400       -6.19800        1.14300
H         -1.23800       -3.76300        1.49500
H         -2.96400       -3.76600       -0.94300
H         -4.46500       -4.55100       -1.41700
H         -2.38000       -5.96400       -1.89600
H         -0.87100       -5.39500       -3.60600
H         -2.38200       -2.88200       -4.34200
H         -1.37600       -3.95600       -5.30400
H         -2.96500       -5.53000       -5.54900
H         -5.87600       -5.67300       -4.13700
H         -8.68000       -1.83200       -7.45900
H         -8.76100       -1.55700       -5.70900
H         -3.96200       -0.39900       -7.45100
H          2.53500       -6.06500       -1.31400
H          3.44500       -4.55100       -1.41500
H          2.35400       -5.69900        1.16700
H          2.93600       -3.07100        0.63700
H          5.51400       -3.12300        1.65100
H          5.24900       -3.59600       -0.10900
H          6.33200       -5.51200        0.71600
H          5.79400       -7.59600        6.99900
H          4.73300       -6.22600        7.34700
H          3.78600       -7.80600        4.65900
H          3.81800       -7.16600        2.33300
H          2.96800       -2.66100        6.03500
H          1.54200       -3.50100        5.41500
H          0.17200       -1.37900        6.00200
H          1.97800       -2.74800        8.08200
H         -0.85600       -2.92300        7.64600
H          1.35100       -1.02800        9.41900
H         -0.43700       -1.24700        9.04400
H         -0.24400        0.05700        7.01600
H          0.66200        0.75100       10.39600
H          2.98000        4.77400        4.22600
H          1.80300        3.49500        3.85900
H          1.49400        1.88000        5.70200
