189
215d_DNA_conf44.pdb
O          2.46200       -0.56400       -3.02800
C          2.16800       -1.56000       -3.92900
C          0.94200       -1.24100       -4.72600
O          1.04800       -0.08400       -5.45700
C         -0.24000       -1.08800       -3.79400
O          0.22100       -0.51300       -2.62500
C         -0.99600        0.02900       -4.52200
C          0.23200        0.87300       -4.86200
N         -0.08800        1.94400       -5.75400
C          0.39800        1.90000       -7.00800
O          1.11400        0.92800       -7.35100
N          0.07700        2.92100       -7.82200
C         -0.69700        3.95000       -7.40900
N         -0.99600        4.98700       -8.31000
C         -1.19900        3.99500       -6.11200
C         -0.86100        2.94300       -5.29500
P         -0.22900       -1.34500       -1.23200
O          1.22700       -1.57900       -0.36200
O         -0.73200       -2.69200       -1.61800
O         -1.25500       -0.47200       -0.22900
C         -0.78400       -0.42000        1.10300
C         -1.65700        0.50600        1.87600
O         -1.27700        0.64800        3.23300
C         -1.59600        1.94500        1.43300
O         -0.28200        2.35800        1.48300
C         -2.30500        2.64100        2.60100
C         -2.25100        1.54100        3.64900
N         -2.12400        2.04400        4.97100
C         -3.05000        1.85900        5.96000
N         -2.64800        2.46400        7.08400
C         -1.45400        3.05800        6.85900
C         -0.60900        3.80600        7.66600
O         -0.92700        4.03200        8.85700
N          0.52400        4.24800        7.09300
C          0.85400        3.99600        5.80300
N          2.05100        4.47900        5.23200
N         -0.00900        3.26000        5.06000
C         -1.16100        2.77600        5.53600
P          0.24900        3.13500        0.09200
O          0.44100        4.80000        0.29900
O         -0.77100        2.91600       -1.03200
O          1.72800        2.43300       -0.34000
C          2.48000        2.07500        0.77200
C          3.61400        1.20400        0.26000
O          4.37600        1.93700       -0.58800
C          4.50000        0.71400        1.35000
O          4.31800        1.41100        2.51800
C          5.88800        0.82100        0.76600
C          5.70100        1.83600       -0.29800
N          6.44200        1.58400       -1.51600
C          7.37100        2.43100       -1.99100
O          7.58800        3.49500       -1.31800
N          8.06400        2.19200       -3.13200
C          7.86200        1.07900       -3.86600
O          8.50000        0.84100       -4.93300
C          6.90300        0.19200       -3.38700
C          6.64700       -1.03300       -4.15100
C          6.19700        0.45200       -2.21200
P          3.82300        0.53500        3.83600
O          4.99400        0.56400        5.07700
O          2.60700        1.24900        4.42700
O          3.41100       -1.06900        3.51500
C          2.54800       -1.58200        4.45300
C          2.46600       -3.06400        4.53700
O          3.72900       -3.59800        4.81700
C          1.86300       -3.79200        3.40400
O          0.58000       -4.27500        3.65800
C          2.83600       -5.01700        3.35300
C          4.10800       -4.21100        3.62700
N          5.25100       -5.05300        3.73500
C          6.18900       -5.15500        4.71000
N          7.07300       -6.10600        4.34800
C          6.74100       -6.62200        3.17100
C          7.28100       -7.60300        2.34700
N          8.47000       -8.30000        2.73300
N          6.66700       -7.90100        1.16300
C          5.53200       -7.24200        0.79000
N          5.02600       -6.29800        1.59700
C          5.59400       -5.96500        2.77800
P         -0.30600       -4.53800        2.28200
O         -0.51500       -6.24600        2.16800
O          0.33000       -4.13000        1.00300
O         -1.88700       -3.91900        2.32500
C         -2.71700       -4.77500        1.56500
C         -4.17000       -4.52800        1.69500
O         -4.81700       -5.53100        0.89400
C         -4.69900       -3.32100        0.94800
O         -4.20900       -2.11300        1.34600
C         -4.33600       -3.71500       -0.47900
C         -4.50900       -5.19700       -0.42200
N         -5.55700       -5.58700       -1.34200
C         -5.19000       -6.00000       -2.57300
O         -3.97200       -6.02700       -2.88800
N         -6.10600       -6.39100       -3.49400
C         -7.41800       -6.37900       -3.20400
N         -8.36700       -6.79800       -4.18300
C         -7.83900       -5.96400       -1.95800
C         -6.86200       -5.57100       -1.04400
P         -5.54200       -1.17400        1.85900
O         -6.84100       -1.76600        1.30700
O         -5.69400       -1.20600        3.54900
O         -5.46700        0.41300        1.36200
C         -5.25900        0.60800        0.01700
C         -5.66200        1.98400       -0.44600
O         -4.98600        3.01900        0.19000
C         -5.48600        2.22000       -1.90900
O         -4.40600        1.53400       -2.44200
C         -5.23600        3.73700       -1.93400
C         -5.53100        4.11600       -0.52000
N         -4.98500        5.37400       -0.12800
C         -4.33000        6.22300       -0.94400
N         -3.94300        7.32400       -0.24200
C         -4.36100        7.16100        1.02800
C         -4.21700        7.99600        2.13100
O         -3.62900        9.10400        2.07600
N         -4.73500        7.58400        3.29400
C         -5.36300        6.40100        3.35100
N         -5.89100        6.03300        4.63700
N         -5.50800        5.58500        2.28700
C         -5.00800        5.94600        1.08900
H          3.05200       -0.88000       -2.30100
H          3.03800       -1.80000       -4.57600
H          1.95000       -2.49000       -3.36200
H          0.73800       -2.14900       -5.35700
H         -0.84200       -1.98600       -3.68000
H         -1.44500       -0.43700       -5.40400
H         -1.69000        0.54500       -3.84900
H          0.64100        1.22900       -3.88900
H         -1.46200        5.85900       -7.99900
H         -0.75700        4.90900       -9.31800
H         -1.81700        4.79900       -5.75600
H         -1.24100        2.95700       -4.27800
H         -0.82600       -1.45600        1.50700
H          0.24500       -0.03000        1.04600
H         -2.71300        0.17300        1.92600
H         -2.11100        2.15300        0.48100
H         -3.34500        2.91400        2.35800
H         -1.76000        3.53700        2.93500
H         -3.23400        1.00000        3.52600
H         -3.97500        1.30000        5.84300
H          2.94400        4.27700        5.73900
H          2.06600        5.01900        4.34200
H          0.26400        3.08000        4.08200
H          1.92200        1.55300        1.55400
H          2.87100        3.01300        1.23000
H          3.09400        0.34900       -0.24600
H          4.30200       -0.36300        1.60100
H          6.27000       -0.15400        0.40700
H          6.56200        1.15500        1.58400
H          6.04400        2.82800        0.09200
H          8.78700        2.90300       -3.45700
H          7.06600       -0.95500       -5.17500
H          5.57200       -1.26700       -4.29300
H          7.15200       -1.92900       -3.68100
H          5.46400       -0.27800       -1.89500
H          1.49300       -1.21700        4.28700
H          2.86900       -1.21300        5.46300
H          1.85900       -3.33300        5.46400
H          1.99000       -3.36300        2.39600
H          2.53100       -5.61900        4.21200
H          2.81200       -5.48400        2.37400
H          4.16000       -3.41900        2.86000
H          6.18600       -4.55500        5.61200
H          9.29700       -8.25400        2.08600
H          8.48300       -8.83100        3.63900
H          5.01900       -7.44900       -0.13400
H         -2.45000       -5.81700        1.83300
H         -2.41400       -4.69100        0.48000
H         -4.56300       -4.62300        2.70900
H         -5.81000       -3.34900        1.06200
H         -5.11600       -3.21700       -1.11400
H         -3.34500       -3.37100       -0.77700
H         -3.60300       -5.78400       -0.68600
H         -8.21600       -6.67900       -5.21700
H         -9.24900       -7.24400       -3.84400
H         -8.88100       -5.94000       -1.68000
H         -7.12800       -5.22800       -0.03600
H         -5.90900       -0.10500       -0.54700
H         -4.20800        0.46500       -0.30500
H         -6.75300        2.17500       -0.21900
H         -6.37700        1.93500       -2.48800
H         -4.40900        1.51400       -3.42400
H         -4.22100        3.98000       -2.24800
H         -6.00400        4.19200       -2.60500
H         -6.63200        4.15100       -0.37100
H         -4.11100        6.10700       -2.00600
H         -6.59200        6.64200        5.14000
H         -5.53800        5.13000        5.03600
H         -6.01000        4.65600        2.36100
