189
215d_DNA_conf26.pdb
O         -4.06600        3.62300       -0.16900
C         -2.67400        3.86000       -0.18100
C         -2.00000        2.57100       -0.56900
O         -2.32900        1.61100        0.37800
C         -0.49200        2.67800       -0.65000
O          0.04400        1.96900       -1.67500
C         -0.13500        1.85700        0.62200
C         -1.22200        0.81900        0.46600
N         -1.23400       -0.22500        1.42100
C         -2.22200       -0.44600        2.29000
O         -3.20500        0.29500        2.28800
N         -2.17500       -1.46300        3.17600
C         -1.14800       -2.29600        3.23200
N         -1.04000       -3.38500        4.14000
C         -0.08700       -2.11700        2.35000
C         -0.17500       -1.06700        1.46300
P          1.16300        2.66800       -2.66600
O          0.76900        4.15100       -3.30000
O          2.45100        2.81100       -1.88900
O          1.51500        1.50600       -3.90600
C          1.49700        0.27100       -3.26100
C          0.71300       -0.76300       -4.00800
O         -0.59900       -0.37300       -4.22200
C          1.35800       -1.10800       -5.30200
O          1.62800       -2.47800       -5.39700
C          0.31300       -0.73400       -6.29700
C         -0.94700       -0.76900       -5.50600
N         -1.63400       -2.04600       -5.50400
C         -1.65900       -3.01600       -6.43200
N         -2.44100       -4.05000       -6.00500
C         -2.90400       -3.70400       -4.79100
C         -3.72300       -4.31100       -3.86600
O         -4.20300       -5.45100       -4.11200
N         -4.05900       -3.76100       -2.68700
C         -3.56600       -2.55000       -2.39700
N         -3.89000       -1.91700       -1.15600
N         -2.74800       -1.89800       -3.27400
C         -2.40200       -2.44000       -4.46200
P          3.28000       -2.80300       -5.47400
O          3.60200       -3.95100       -6.68000
O          4.12800       -1.60100       -5.73400
O          3.74000       -3.41400       -3.94600
C          5.03100       -3.08300       -3.63400
C          5.48900       -3.65700       -2.31200
O          5.42600       -5.04000       -2.29500
C          4.71000       -3.15500       -1.12800
O          5.39000       -3.25800        0.05600
C          3.60700       -4.23500       -1.05600
C          4.34500       -5.45600       -1.56300
N          3.49100       -6.38000       -2.27500
C          2.48200       -6.94700       -1.58800
O          2.30800       -6.66500       -0.35900
N          1.62100       -7.81800       -2.13600
C          1.78600       -8.13400       -3.44100
O          0.98700       -8.95400       -3.98400
C          2.81700       -7.57200       -4.19400
C          3.02000       -7.90100       -5.62800
C          3.67000       -6.68100       -3.57100
P          5.22900       -2.00100        1.12500
O          6.26200       -2.22700        2.46200
O          3.81600       -2.09000        1.71200
O          5.37100       -0.47400        0.46800
C          4.79700        0.50600        1.30900
C          5.01200        1.83500        0.65300
O          6.36300        2.14900        0.45800
C          4.63100        2.99500        1.56000
O          3.28600        3.07700        1.82300
C          5.13100        4.13700        0.65900
C          6.29000        3.45900       -0.03800
N          6.10300        3.43600       -1.48300
C          6.18000        2.34000       -2.25900
N          5.95400        2.72300       -3.51800
C          5.73900        4.03200       -3.53200
C          5.45700        4.95500       -4.53300
N          5.36800        4.43600       -5.86000
N          5.28400        6.24500       -4.24900
C          5.37900        6.67900       -2.98000
N          5.65300        5.82500       -1.95500
C          5.82900        4.51600       -2.24000
P          2.92600        3.25500        3.44300
O          2.89800        4.91900        3.77200
O          3.91500        2.57800        4.35700
O          1.39700        2.63700        3.80500
C          1.46500        1.60300        4.73500
C          0.08600        1.08600        5.12500
O          0.15800        0.06900        6.04800
C         -0.76900        2.20100        5.69000
O         -2.01700        2.13400        5.08700
C         -0.87700        1.72400        7.15300
C         -0.92600        0.21600        6.87000
N         -0.90000       -0.53900        8.08300
C          0.23600       -0.81200        8.74700
O          1.31000       -0.37200        8.26000
N          0.21200       -1.53200        9.89100
C         -0.93100       -2.00600       10.41800
N         -0.96400       -2.77100       11.62800
C         -2.11000       -1.73800        9.75300
C         -2.07400       -1.00300        8.58700
P         -2.57600        3.57800        4.46600
O         -1.43800        4.35700        3.88400
O         -3.39500        4.49500        5.65700
O         -3.71600        3.33300        3.22800
C         -4.86900        2.72800        3.69300
C         -5.87300        2.45100        2.62300
O         -6.32900        3.57700        1.95100
C         -7.09100        1.81700        3.26300
O         -7.33600        2.40500        4.49800
C         -8.16400        2.17900        2.27400
C         -7.57700        3.25800        1.43400
N         -7.53000        2.95300        0.02800
C         -7.54400        1.74300       -0.59300
N         -7.48500        1.90300       -1.91300
C         -7.43200        3.21900       -2.17700
C         -7.36200        3.88200       -3.36400
O         -7.33800        3.26100       -4.47000
N         -7.31900        5.23400       -3.35000
C         -7.34400        5.90300       -2.16700
N         -7.29800        7.34600       -2.19000
N         -7.41400        5.22100       -1.00900
C         -7.45900        3.89200       -0.96100
H         -4.32800        3.08300       -0.96800
H         -2.45200        4.14300        0.88100
H         -2.39300        4.72900       -0.79800
H         -2.43700        2.20100       -1.52600
H         -0.17300        3.71900       -0.54300
H          0.82900        1.35600        0.50200
H         -0.25000        2.52300        1.47200
H         -1.06400        0.36000       -0.53400
H         -1.83000       -4.02600        4.38300
H         -0.11200       -3.55300        4.59400
H          0.78300       -2.78900        2.36800
H          0.67000       -0.94100        0.77800
H          1.07200        0.38600       -2.26600
H          2.58900       -0.01900       -3.19200
H          0.63200       -1.72100       -3.41100
H          2.31200       -0.57500       -5.45000
H          0.30400       -1.33000       -7.21400
H          0.49400        0.34700       -6.56400
H         -1.63800        0.01400       -5.88500
H         -1.12800       -2.96000       -7.37300
H         -4.83700       -1.95800       -0.72200
H         -3.16200       -1.36300       -0.61500
H         -2.41900       -0.97700       -2.97700
H          5.15600       -1.98800       -3.64700
H          5.74000       -3.47600       -4.39500
H          6.54700       -3.36500       -2.17400
H          4.20700       -2.20700       -1.28700
H          2.72300       -3.96400       -1.63100
H          3.30600       -4.43700       -0.01300
H          4.75700       -6.05300       -0.69700
H          0.83100       -8.26600       -1.61000
H          3.23400       -6.95600       -6.21200
H          3.84800       -8.59500       -5.79400
H          2.07000       -8.28700       -6.05000
H          4.48500       -6.20700       -4.07500
H          3.71500        0.31400        1.34700
H          5.25800        0.45800        2.30700
H          4.49700        1.94800       -0.30200
H          5.24900        3.03900        2.48100
H          5.41900        5.02500        1.23200
H          4.35000        4.31500       -0.09800
H          7.19800        4.02500        0.25500
H          6.39100        1.33100       -1.89700
H          4.42100        4.30400       -6.25900
H          6.20600        4.18900       -6.42900
H          5.23400        7.74800       -2.75900
H          1.99500        1.91200        5.63700
H          2.04000        0.79300        4.25700
H         -0.35200        0.68600        4.19600
H         -0.32000        3.19100        5.65100
H          0.03600        1.95700        7.71300
H         -1.76500        2.09700        7.65600
H         -1.86400        0.05700        6.29100
H         -1.55400       -2.44300       12.43800
H         -0.42400       -3.65000       11.74400
H         -3.02200       -2.12700       10.18900
H         -3.02700       -0.80600        8.08300
H         -5.33900        3.35300        4.49700
H         -4.58800        1.75600        4.14300
H         -5.47800        1.72700        1.88200
H         -6.94200        0.72100        3.34500
H         -8.00000        3.13100        4.35300
H         -9.07400        2.49200        2.85000
H         -8.43600        1.26000        1.73100
H         -8.19400        4.17200        1.55700
H         -7.59600        0.79900       -0.07500
H         -6.93000        7.87400       -1.37100
H         -7.64600        7.85300       -3.04900
H         -7.43400        5.74300       -0.10300
