189
215d_DNA_conf0.pdb
O         -8.03500        5.41000        2.79500
C         -7.74500        4.04900        2.56500
C         -6.33200        3.70800        2.91700
O         -6.00000        2.37800        2.71100
C         -5.31600        4.54400        2.21800
O         -5.51500        4.51300        0.83000
C         -4.06200        3.67000        2.44400
C         -4.69900        2.31500        2.22900
N         -4.76400        2.04900        0.80700
C         -3.67900        1.97500        0.01900
O         -2.53100        2.13700        0.49600
N         -3.74700        1.72800       -1.30900
C         -4.92000        1.53400       -1.94500
N         -5.01400        1.27100       -3.34000
C         -6.05900        1.60200       -1.16600
C         -5.95800        1.85700        0.18600
P         -5.31500        6.07800        0.17900
O         -6.01200        7.17100        1.26200
O         -5.94200        6.17800       -1.17600
O         -3.65500        6.39600        0.16600
C         -3.01600        5.79100       -0.89700
C         -1.56000        6.09800       -0.79100
O         -0.93500        5.66000        0.34700
C         -0.72200        5.56000       -1.92000
O         -0.71400        4.17700       -1.98300
C          0.64600        5.97900       -1.35200
C          0.42700        5.56800        0.08500
N          1.20800        6.35200        1.02300
C          0.68700        7.10500        1.99500
N          1.70700        7.67900        2.65000
C          2.85600        7.28700        2.09200
C          4.15900        7.58300        2.38100
O          4.42900        8.36600        3.34300
N          5.15800        7.05600        1.66100
C          4.85400        6.22800        0.64500
N          5.93400        5.68400       -0.10300
N          3.56800        5.93000        0.35200
C          2.54800        6.43900        1.05100
P         -0.97500        3.61300       -3.54700
O         -0.18100        4.54700       -4.71300
O         -2.47100        3.61300       -3.76900
O         -0.45400        2.02600       -3.78200
C          0.74300        1.86200       -3.09500
C          1.30500        0.46300       -3.28300
O          1.57000        0.14600       -4.59100
C          0.26900       -0.52200       -2.78500
O          0.75700       -1.26700       -1.71000
C          0.12600       -1.46400       -3.95500
C          1.40600       -1.20900       -4.71600
N          1.23300       -1.61400       -6.09900
C          1.11900       -0.68700       -7.07700
O          1.16300        0.55700       -6.81300
N          0.95600       -1.01100       -8.37500
C          0.89700       -2.29700       -8.76400
O          0.74600       -2.65300       -9.96400
C          1.01300       -3.27300       -7.77300
C          0.96000       -4.72200       -8.09500
C          1.17900       -2.90900       -6.45100
P         -0.25300       -1.04500       -0.40300
O          0.49400        0.00700        0.68300
O         -1.57100       -0.48900       -0.89600
O         -0.62200       -2.47100        0.42800
C         -1.11800       -2.12500        1.70500
C         -1.79300       -3.33600        2.34200
O         -2.83000       -3.76900        1.56600
C         -0.81800       -4.46300        2.54100
O          0.50200       -4.10300        2.56800
C         -1.18900       -5.32900        1.32300
C         -2.68600       -5.11700        1.32700
N         -3.31400       -5.51700        0.07700
C         -3.04900       -6.50500       -0.76100
N         -3.92100       -6.47200       -1.81200
C         -4.74600       -5.42700       -1.60600
C         -5.81700       -4.86700       -2.28300
N         -6.22600       -5.46700       -3.50600
N         -6.46400       -3.77600       -1.79900
C         -6.08400       -3.19600       -0.63600
N         -5.04600       -3.72800        0.03100
C         -4.37500       -4.81800       -0.42100
P          1.24500       -4.76600        3.94100
O          0.15600       -5.81700        4.74000
O          2.40300       -5.60900        3.47200
O          1.80600       -3.61600        5.01400
C          1.42000       -2.32500        4.74100
C          1.92900       -1.43300        5.83400
O          1.61800       -0.10200        5.68800
C          3.38700       -1.55300        6.11000
O          4.18800       -1.50400        4.97100
C          3.62700       -0.25200        6.89200
C          2.64500        0.66100        6.18800
N          3.34700        1.30200        5.09600
C          4.36600        2.14700        5.36300
O          4.73900        2.40600        6.54800
N          5.02400        2.74800        4.34100
C          4.71100        2.54400        3.06100
N          5.38100        3.15600        1.96500
C          3.66100        1.67500        2.74800
C          3.01200        1.08000        3.81300
P          5.28200       -2.80400        4.98700
O          6.69400       -2.27400        5.08600
O          5.02000       -3.74700        6.38600
O          5.09300       -3.79300        3.65100
C          5.58300       -3.15300        2.49900
C          5.38300       -4.06900        1.28300
O          4.03000       -4.28600        1.19900
C          5.83600       -3.38800        0.04000
O          6.21200       -2.06100        0.25300
C          4.67300       -3.47700       -0.90200
C          3.65600       -4.24500       -0.13200
N          3.38300       -5.56800       -0.66500
C          4.13600       -6.67800       -0.43900
N          3.58900       -7.72400       -1.08400
C          2.48000       -7.31100       -1.73300
C          1.57600       -7.98400       -2.52400
O          1.67400       -9.21400       -2.77600
N          0.55700       -7.26200       -3.03200
C          0.45300       -5.94900       -2.76200
N         -0.66700       -5.27300       -3.35100
N          1.32400       -5.29200       -1.99700
C          2.36800       -5.95200       -1.45700
H         -9.01100        5.53600        2.96100
H         -8.47300        3.49400        3.16400
H         -7.97700        3.86900        1.49200
H         -6.21600        3.90600        4.01600
H         -5.16000        5.54800        2.61100
H         -3.78200        3.82300        3.50700
H         -3.30400        3.94300        1.71500
H         -4.11200        1.51500        2.76100
H         -5.87800        0.74300       -3.66500
H         -4.29200        1.56400       -4.03600
H         -7.03800        1.45700       -1.60700
H         -6.85600        1.89900        0.75100
H         -3.25200        4.74200       -1.05000
H         -3.37500        6.31800       -1.82700
H         -1.40900        7.22000       -0.80700
H         -0.90700        6.06500       -2.88800
H          1.46100        5.47700       -1.86400
H          0.69400        7.08600       -1.34800
H          0.68700        4.49500        0.21000
H         -0.34900        7.28000        2.27900
H          6.03300        5.80600       -1.13500
H          6.65000        5.13700        0.45500
H          3.35500        5.29500       -0.42500
H          0.64300        2.01200       -2.00000
H          1.53200        2.56800       -3.43100
H          2.23300        0.33400       -2.69600
H         -0.67900       -0.00300       -2.52400
H         -0.74500       -1.10300       -4.54800
H          0.01600       -2.52300       -3.66000
H          2.22700       -1.83100       -4.30700
H          0.87000       -0.26200       -9.12400
H          0.87800       -4.92000       -9.16900
H          0.09400       -5.12200       -7.51600
H          1.87600       -5.18100       -7.64800
H          1.26800       -3.69900       -5.69400
H         -1.85800       -1.31700        1.67600
H         -0.29200       -1.83400        2.38000
H         -2.21000       -3.04600        3.32400
H         -1.13200       -5.10400        3.41800
H         -0.92600       -6.39000        1.50700
H         -0.72400       -4.91300        0.41600
H         -3.12200       -5.68400        2.17700
H         -2.25700       -7.22200       -0.62000
H         -7.19600       -5.84200       -3.66300
H         -5.48100       -5.51300       -4.26200
H         -6.57800       -2.32500       -0.22300
H          1.90000       -2.01200        3.79800
H          0.32200       -2.21600        4.65500
H          1.39400       -1.77200        6.76900
H          3.66000       -2.42900        6.72300
H          3.32200       -0.48800        7.93300
H          4.67600        0.08700        6.81800
H          2.30500        1.39900        6.94700
H          6.39500        3.40800        2.09600
H          4.86900        3.34300        1.06600
H          3.38600        1.49100        1.71100
H          2.19200        0.40000        3.61100
H          6.62700       -2.88900        2.67100
H          5.00500       -2.22900        2.40200
H          5.95500       -4.98900        1.47000
H          6.74600       -3.89200       -0.39300
H          6.24800       -1.55100       -0.58700
H          4.32400       -2.44300       -1.12500
H          4.92800       -4.04800       -1.81400
H          2.69500       -3.65100       -0.14600
H          5.03700       -6.77100        0.15000
H         -0.91700       -5.49500       -4.35100
H         -1.22300       -4.56600       -2.78400
H          1.21600       -4.25400       -1.80100
