189
215d_DNA_conf10.pdb
O         -3.90900       -3.50700        7.15100
C         -3.66400       -2.69600        6.02100
C         -4.57700       -3.07300        4.88800
O         -4.41300       -4.39400        4.49000
C         -4.17000       -2.29600        3.66400
O         -4.95300       -1.17200        3.46400
C         -4.35000       -3.24800        2.48800
C         -5.01300       -4.42400        3.22200
N         -4.73700       -5.61400        2.48000
C         -4.23300       -6.68800        3.10900
O         -4.01800       -6.62100        4.33900
N         -3.98400       -7.78700        2.38700
C         -4.23500       -7.81200        1.05300
N         -3.93500       -9.02800        0.38000
C         -4.75400       -6.71600        0.38800
C         -5.00300       -5.59500        1.15100
P         -3.95300        0.18100        3.43600
O         -3.88700        0.89900        4.99000
O         -4.47600        1.23300        2.45600
O         -2.36700       -0.24100        3.05900
C         -2.16800       -0.32200        1.68200
C         -0.68000       -0.23500        1.34900
O         -0.26200        0.98700        1.81400
C         -0.58700       -0.15700       -0.15600
O         -1.50200       -1.03500       -0.72200
C         -0.95800        1.28500       -0.35900
C         -0.47600        1.93100        0.83500
N         -1.21200        3.06400        1.33100
C         -1.25500        3.36200        2.66500
N         -2.01400        4.46000        2.83600
C         -2.46600        4.88200        1.63400
C         -3.26900        5.94700        1.27700
O         -3.74300        6.76300        2.12200
N         -3.52700        6.07200       -0.05400
C         -3.00500        5.18200       -0.93900
N         -3.35700        5.43100       -2.31500
N         -2.23100        4.16000       -0.57800
C         -1.94600        3.98900        0.72500
P         -0.71700       -2.16900       -1.72900
O          0.94800       -2.09200       -1.45200
O         -1.20200       -3.55000       -1.32000
O         -1.09600       -1.84600       -3.36700
C         -2.36600       -1.27700       -3.34000
C         -2.91900       -0.92500       -4.68200
O         -4.17900       -0.38000       -4.48900
C         -2.04500        0.11100       -5.33700
O         -0.91100        0.39000       -4.59500
C         -2.96900        1.32700       -5.33200
C         -3.91600        0.96000       -4.24100
N         -5.14100        1.74400       -4.22800
C         -5.27900        2.90700       -4.88400
O         -4.32800        3.36900       -5.55000
N         -6.46000        3.54100       -4.79600
C         -7.50300        3.06700       -4.08400
O         -8.60900        3.67600       -4.01000
C         -7.37300        1.87400       -3.40500
C         -8.47700        1.27900       -2.59500
C         -6.16300        1.22900       -3.49900
P          0.50300        0.24500       -5.47500
O          0.07000       -0.12500       -7.07800
O          1.35300       -0.90700       -4.99700
O          1.38200        1.68900       -5.42300
C          1.97800        1.89700       -4.20400
C          2.87700        3.10700       -4.25600
O          2.19000        4.26200       -4.59100
C          3.48100        3.40500       -2.89000
O          3.70000        2.28800       -2.12400
C          2.43600        4.33500       -2.31700
C          1.53800        4.63200       -3.45400
N          1.07300        6.01200       -3.49600
C         -0.17500        6.39600       -3.89400
N         -0.27200        7.73200       -3.81400
C          0.88100        8.24500       -3.37300
C          1.34200        9.51700       -3.10800
N          0.49300       10.64100       -3.30500
N          2.60700        9.68200       -2.65800
C          3.41200        8.62200       -2.47000
N          2.94600        7.39100       -2.73400
C          1.71700        7.14300       -3.17800
P          5.35400        2.26700       -1.74500
O          5.49900        2.97200       -0.19500
O          6.16400        3.05200       -2.73400
O          5.96500        0.69500       -1.63300
C          5.48200        0.05800       -0.50600
C          6.07200       -1.34100       -0.37500
O          5.74600       -2.09400       -1.47100
C          5.42500       -2.01800        0.83800
O          6.29300       -2.91800        1.40900
C          4.28600       -2.77100        0.19800
C          4.45200       -2.56100       -1.29300
N          4.35900       -3.82800       -2.00400
C          5.21900       -4.15200       -2.99000
O          6.12900       -3.33000       -3.30200
N          5.15600       -5.31800       -3.66500
C          4.18400       -6.22300       -3.34800
N          4.07900       -7.47200       -4.03500
C          3.29000       -5.90500       -2.33500
C          3.37600       -4.70300       -1.65800
P          6.72200       -2.59100        2.98800
O          6.87200       -1.08600        3.16900
O          8.28100       -3.24800        3.24400
O          5.71900       -3.28000        4.13700
C          4.52500       -3.66500        3.53400
C          3.56900       -4.27300        4.54000
O          3.28000       -3.33900        5.53200
C          2.28000       -4.55300        3.82000
O          2.23700       -4.01700        2.54800
C          1.21300       -3.85600        4.64900
C          1.96100       -3.58500        5.92000
N          1.42400       -2.40300        6.52800
C          0.74800       -2.32000        7.69100
N          0.42200       -1.01100        7.89400
C          0.89600       -0.29400        6.85800
C          0.82200        1.06100        6.60500
O          0.26400        1.88400        7.35100
N          1.39100        1.51800        5.47800
C          2.01200        0.67400        4.62500
N          2.61800        1.17700        3.41900
N          2.07600       -0.64800        4.88700
C          1.51700       -1.16400        6.01500
H         -4.74600       -3.13600        7.56000
H         -3.90200       -1.66100        6.32900
H         -2.61000       -2.72200        5.72800
H         -5.63000       -2.88600        5.16900
H         -3.12500       -1.99500        3.71700
H         -3.39400       -3.57300        2.07800
H         -5.02600       -2.83000        1.71600
H         -6.07000       -4.17100        3.35000
H         -4.50300       -9.86600        0.68800
H         -3.20500       -9.07700       -0.36200
H         -4.95000       -6.75000       -0.67600
H         -5.40700       -4.73200        0.65200
H         -2.60200       -1.26600        1.33100
H         -2.75600        0.48800        1.22100
H         -0.12500       -1.08100        1.76600
H          0.45400       -0.36800       -0.48900
H         -0.45200        1.56900       -1.31700
H         -2.06900        1.25500       -0.49900
H          0.55700        2.34700        0.61100
H         -0.77100        2.82200        3.46700
H         -4.13600        4.82100       -2.69700
H         -2.87700        6.15900       -2.88800
H         -1.85400        3.50500       -1.28900
H         -3.03000       -2.01200       -2.79600
H         -2.29100       -0.41300       -2.65100
H         -2.96600       -1.86500       -5.28800
H         -1.80000       -0.17700       -6.38700
H         -2.34900        2.20800       -5.12600
H         -3.44400        1.35800       -6.33400
H         -3.40300        1.14600       -3.27300
H         -6.62900        4.45500       -5.28700
H         -8.89500        0.37900       -3.08600
H         -8.00400        0.90700       -1.64200
H         -9.22000        2.05200       -2.37700
H         -6.05900        0.28100       -2.96100
H          2.57400        1.00000       -3.91400
H          1.25300        2.06000       -3.37300
H          3.68600        2.98100       -5.00800
H          4.45700        3.92700       -3.03800
H          2.99500        5.19200       -1.89400
H          1.89300        3.83400       -1.45700
H          0.61800        3.98500       -3.31300
H         -0.93000        5.68900       -4.21400
H         -0.33600       10.79800       -2.69800
H          0.75400       11.28500       -4.08500
H          4.43500        8.70100       -2.11000
H          5.82700        0.63400        0.38500
H          4.38900        0.03900       -0.49100
H          7.15200       -1.31800       -0.21200
H          5.08600       -1.23000        1.54400
H          4.29200       -3.85400        0.44400
H          3.33400       -2.28600        0.49200
H          3.67400       -1.90200       -1.72900
H          3.69200       -8.26400       -3.47700
H          4.37300       -7.57200       -5.03100
H          2.54000       -6.63100       -2.11000
H          2.67400       -4.44500       -0.85800
H          4.07500       -2.76800        3.08700
H          4.74300       -4.38700        2.72900
H          4.03400       -5.18000        4.96800
H          2.08500       -5.64900        3.78300
H          1.42400       -3.52500        2.34800
H          0.33200       -4.51000        4.81300
H          0.84800       -2.94000        4.13900
H          1.91300       -4.47100        6.56500
H          0.50000       -3.13000        8.35500
H          2.57500        0.61400        2.55600
H          3.09500        2.10800        3.43300
H          2.56500       -1.26600        4.20500
