189
215d_DNA_conf33.pdb
O         -0.59300        2.90900        1.95100
C         -1.55400        2.66900        2.94900
C         -2.58200        1.64900        2.44700
O         -3.15900        2.19800        1.33600
C         -1.83600        0.40600        2.01800
O         -2.71600       -0.65700        2.19200
C         -1.63100        0.67800        0.52100
C         -2.89900        1.44200        0.22500
N         -2.78900        2.29400       -0.94600
C         -3.31500        3.52900       -0.92800
O         -3.90600        3.94800        0.11100
N         -3.24000        4.36900       -1.99900
C         -2.63000        3.99100       -3.13000
N         -2.54800        4.86100       -4.25100
C         -2.08300        2.72600       -3.16700
C         -2.16800        1.89200       -2.07700
P         -2.15000       -1.88300        3.16500
O         -2.84100       -1.81100        4.71300
O         -2.65200       -3.19800        2.55900
O         -0.45800       -1.87800        3.22500
C          0.00500       -2.90800        4.00700
C          1.49300       -2.97800        4.09000
O          1.92100       -4.03100        4.88600
C          2.11300       -1.72200        4.70200
O          3.44100       -1.74600        4.36500
C          2.05700       -2.17600        6.17700
C          2.64500       -3.57000        5.94100
N          2.57800       -4.36600        7.12800
C          1.48700       -4.77800        7.79700
N          1.85400       -5.51800        8.87800
C          3.20000       -5.58100        8.90000
C          4.14100       -6.16700        9.72200
O          3.74700       -6.83300       10.73300
N          5.46100       -6.02500        9.44200
C          5.89200       -5.33000        8.38500
N          7.26500       -5.15500        8.05300
N          4.97400       -4.76200        7.58900
C          3.64000       -4.87100        7.82200
P          4.07900       -0.34700        3.74600
O          5.65800       -0.70600        3.19800
O          4.24600        0.74500        4.77300
O          3.17300        0.29000        2.48700
C          4.10400        0.88900        1.61100
C          3.25900        1.63400        0.56800
O          2.51700        2.55100        1.30000
C          4.22100        2.39600       -0.27700
O          5.36400        1.66900       -0.49400
C          4.48700        3.60600        0.63300
C          3.15300        3.75700        1.29700
N          3.36500        4.31400        2.61200
C          2.77800        3.86400        3.73000
O          1.98600        2.89300        3.65900
N          2.98300        4.39300        4.95000
C          3.83000        5.43600        5.05200
O          4.00600        5.91300        6.20500
C          4.46700        5.94900        3.94900
C          5.39000        7.09200        4.07900
C          4.21000        5.36100        2.73700
P          5.75600        1.56900       -2.11600
O          5.68500        3.16700       -2.72500
O          7.19100        1.12700       -2.33100
O          4.75300        0.53100       -2.99600
C          4.16800        1.28000       -3.98700
C          3.33100        0.53300       -4.96900
O          2.82600        1.45700       -5.87400
C          2.13000       -0.15300       -4.35700
O          1.53600       -0.94600       -5.33100
C          1.20600        1.06600       -4.21500
C          1.53700        1.78400       -5.48300
N          1.25900        3.18600       -5.45500
C          1.09100        3.92800       -6.58400
N          0.84300        5.20300       -6.26900
C          0.84600        5.31400       -4.94400
C          0.64700        6.39500       -4.13100
N          0.38300        7.66900       -4.70800
N          0.71200        6.19600       -2.79500
C          0.96800        4.95000       -2.31800
N          1.16300        3.89400       -3.12300
C          1.10600        4.05300       -4.44800
P          1.38400       -2.55000       -4.92900
O          0.69800       -3.38600       -6.22200
O          2.75400       -3.10200       -4.60600
O          0.36600       -2.79800       -3.59300
C          0.19600       -4.16700       -3.37700
C         -0.57700       -4.39200       -2.11700
O         -0.74400       -5.77800       -1.88900
C         -2.00600       -3.96000       -2.24400
O         -2.20800       -2.59400       -2.15900
C         -2.62700       -4.68400       -1.04900
C         -1.79500       -5.93700       -1.02300
N         -2.63300       -7.08600       -1.38000
C         -3.31600       -7.75100       -0.41300
O         -3.21500       -7.36000        0.79000
N         -4.09900       -8.81800       -0.70300
C         -4.23500       -9.26700       -1.97800
N         -5.06000      -10.38300       -2.25000
C         -3.54500       -8.60500       -2.99700
C         -2.74700       -7.50900       -2.66000
P         -3.21100       -2.18200       -3.46800
O         -3.14100       -3.22100       -4.57800
O         -2.73000       -0.71300       -4.09700
O         -4.83500       -2.17200       -2.93100
C         -5.29100       -0.87800       -2.99300
C         -6.67900       -0.72000       -2.40300
O         -6.74100       -1.07600       -1.08500
C         -7.04400        0.74200       -2.49700
O         -6.13900        1.46400       -3.28900
C         -6.92800        1.16800       -1.04000
C         -7.31100       -0.04300       -0.34500
N         -6.99400       -0.21500        1.03800
C         -7.00300       -1.43900        1.64100
N         -6.67500       -1.30500        2.90800
C         -6.44100       -0.01000        3.18400
C         -6.07300        0.68900        4.31400
O         -5.89100        0.03400        5.39300
N         -5.91200        2.01800        4.27400
C         -6.12100        2.63600        3.09900
N         -5.95000        4.06800        3.05200
N         -6.48100        1.98800        1.97500
C         -6.64700        0.65700        1.99700
H         -0.91400        3.63500        1.33900
H         -2.03500        3.64500        3.16100
H         -1.01400        2.25400        3.81700
H         -3.28900        1.48200        3.27500
H         -0.87400        0.28500        2.53300
H         -1.63000       -0.33300        0.05600
H         -0.71800        1.24700        0.31500
H         -3.68200        0.67000        0.03000
H         -3.06700        5.76500       -4.23100
H         -1.96700        4.57500       -5.07300
H         -1.58800        2.43100       -4.09500
H         -1.74300        0.90100       -2.09600
H         -0.34500       -3.90300        3.65200
H         -0.38800       -2.80400        5.05700
H          1.90300       -3.13400        3.07300
H          1.56100       -0.81100        4.51800
H          2.68700       -1.56000        6.82300
H          0.99400       -2.21400        6.44200
H          3.71100       -3.37900        5.68100
H          0.44600       -4.55300        7.51900
H          7.64300       -4.16700        7.99500
H          7.90600       -5.96200        7.86600
H          5.29000       -4.20800        6.74600
H          4.72400        0.11100        1.14000
H          4.66800        1.63200        2.20500
H          2.65900        0.88300        0.04700
H          3.71100        2.74700       -1.19600
H          5.27700        3.37900        1.35200
H          4.72500        4.48900       -0.00900
H          2.50600        4.45200        0.68300
H          2.50700        4.00900        5.78600
H          5.26000        7.55700        5.09100
H          5.11200        7.86300        3.33000
H          6.43900        6.81900        3.89000
H          4.71600        5.77000        1.86600
H          4.99400        1.83400       -4.49000
H          3.57000        2.08700       -3.48600
H          3.96300       -0.18400       -5.52000
H          2.35600       -0.64700       -3.42000
H          0.15500        0.75100       -4.14500
H          1.55900        1.56700       -3.29100
H          0.87000        1.35300       -6.28400
H          1.14400        3.56400       -7.61500
H          0.98000        8.04500       -5.49800
H         -0.38800        8.29700       -4.40300
H          1.00800        4.84900       -1.24000
H         -0.32500       -4.56400       -4.26800
H          1.16800       -4.72000       -3.32900
H         -0.08100       -4.00800       -1.21800
H         -2.45000       -4.41800       -3.13100
H         -2.49200       -4.06000       -0.14500
H         -3.68800       -4.91100       -1.17900
H         -1.36600       -6.13300       -0.01900
H         -6.03300      -10.41700       -1.84200
H         -4.77700      -11.19900       -2.84000
H         -3.63600       -8.94600       -4.03200
H         -2.20700       -6.99200       -3.46300
H         -5.40500       -0.60300       -4.07900
H         -4.59300       -0.12600       -2.56800
H         -7.38800       -1.33900       -3.01400
H         -8.08900        0.88500       -2.85500
H         -5.87700        2.27800       -2.78000
H         -5.86900        1.47100       -0.94300
H         -7.63700        2.02400       -0.97700
H         -8.42300       -0.18900       -0.47200
H         -7.24400       -2.39900        1.16000
H         -5.06700        4.52800        3.37300
H         -6.77300        4.59100        2.67700
H         -6.63000        2.49500        1.10200
