189
215d_DNA_conf23.pdb
O          3.72100        1.90400        5.97600
C          4.85400        1.78600        5.16300
C          5.27500        3.19900        4.81700
O          6.39800        3.15600        4.01500
C          4.19200        3.92600        4.09200
O          3.00700        3.21500        3.95900
C          4.82900        4.16900        2.73400
C          5.90300        3.11200        2.72400
N          6.92200        3.36800        1.73600
C          7.99500        2.55500        1.71100
O          8.10800        1.58800        2.53100
N          8.98400        2.73600        0.81800
C          8.96900        3.72300       -0.09100
N         10.00100        3.93400       -1.04100
C          7.88000        4.57000       -0.08300
C          6.87700        4.36400        0.84000
P          1.73100        4.14800        4.52000
O          2.05700        4.56100        6.14100
O          1.68700        5.42200        3.67800
O          0.26500        3.36300        4.40600
C         -0.41200        3.64400        3.23200
C         -1.83300        3.14200        3.20700
O         -2.45600        3.45800        2.00100
C         -1.98800        1.69500        3.47200
O         -2.66800        1.37400        4.64900
C         -2.73100        1.14500        2.26200
C         -2.63800        2.29200        1.28400
N         -3.88200        2.43100        0.53100
C         -4.71500        3.48800        0.47000
N         -5.76300        3.22000       -0.33000
C         -5.61700        1.98800       -0.79300
C         -6.34000        1.17700       -1.62800
O         -7.42300        1.56000       -2.15500
N         -5.94500       -0.07400       -1.94000
C         -4.81600       -0.55600       -1.42900
N         -4.32800       -1.88200       -1.72200
N         -4.09600        0.21800       -0.61100
C         -4.43900        1.47000       -0.26500
P         -1.96200        0.03300        5.41800
O         -0.34500       -0.06000        4.94400
O         -2.03200        0.11800        6.90400
O         -2.72500       -1.38900        4.82000
C         -3.99200       -1.38400        5.40000
C         -5.07900       -1.87100        4.47400
O         -6.27000       -1.82000        5.18600
C         -4.87400       -3.25900        3.97600
O         -3.62000       -3.78900        4.15900
C         -5.97800       -4.06600        4.59800
C         -6.97600       -2.98100        4.94700
N         -7.99100       -2.80300        3.92500
C         -8.86600       -3.76300        3.58600
O         -8.80100       -4.87100        4.18200
N         -9.81000       -3.61000        2.64300
C         -9.94600       -2.44400        1.95300
O        -10.83800       -2.30900        1.06600
C         -9.06400       -1.43700        2.27500
C         -9.15500       -0.13700        1.55800
C         -8.10800       -1.63100        3.24900
P         -2.96900       -4.13600        2.63100
O         -3.73200       -3.19400        1.44300
O         -3.22900       -5.57600        2.26100
O         -1.31600       -3.80900        2.54300
C         -0.64400       -4.94800        2.15500
C          0.83900       -4.66400        1.87800
O          1.38600       -5.88000        1.50700
C          0.99400       -3.71600        0.74300
O         -0.03700       -2.79600        0.59900
C          0.99900       -4.68900       -0.44800
C          1.77800       -5.82900        0.19800
N          1.57400       -7.05700       -0.51300
C          1.46300       -8.32400       -0.09200
N          1.27500       -9.15900       -1.14300
C          1.26400       -8.42100       -2.25500
C          1.11400       -8.72300       -3.58500
N          0.92000      -10.05100       -4.05300
N          1.14900       -7.74000       -4.50400
C          1.33200       -6.44900       -4.11500
N          1.48100       -6.13300       -2.81300
C          1.45000       -7.11200       -1.86600
P          0.66600       -1.26300        0.42100
O          0.45700       -0.42900        1.87300
O          2.16300       -1.36600        0.16200
O         -0.00700       -0.43900       -0.89200
C          0.77900        0.65400       -1.20400
C          0.34400        1.31100       -2.49600
O         -0.95900        1.72800       -2.35500
C          1.19600        2.46200       -2.90900
O          1.99300        2.93000       -1.89900
C          0.13000        3.54800       -3.15500
C         -0.92700        3.09000       -2.16800
N         -2.20700        3.72200       -2.45900
C         -2.37400        4.97400       -2.00100
O         -1.47200        5.56400       -1.35400
N         -3.51500        5.67200       -2.20700
C         -4.52100        5.09700       -2.89400
N         -5.73300        5.83000       -3.11600
C         -4.36800        3.80500       -3.37500
C         -3.18600        3.11200       -3.14900
P          3.58600        3.20600       -2.27800
O          3.84200        4.65200       -2.67600
O          4.49300        2.96300       -0.84700
O          4.24000        2.18200       -3.42900
C          4.22800        0.86600       -3.00400
C          5.16300        0.00600       -3.79100
O          5.15000       -1.29200       -3.36400
C          4.90500       -0.00400       -5.27900
O          5.57400        0.98200       -5.96500
C          5.49500       -1.40500       -5.59200
C          4.95400       -2.14100       -4.46200
N          5.48900       -3.42000       -4.11800
C          5.25400       -4.01200       -2.91400
N          5.88400       -5.18900       -2.89500
C          6.52700       -5.38400       -4.05800
C          7.29800       -6.41100       -4.51500
O          7.51400       -7.40800       -3.81000
N          7.81200       -6.28600       -5.77000
C          7.56900       -5.19100       -6.52900
N          8.13600       -5.11700       -7.83400
N          6.80300       -4.20400       -6.03500
C          6.26000       -4.25300       -4.80800
H          3.01700        1.33700        5.56900
H          4.65300        1.23600        4.22300
H          5.66200        1.28300        5.73200
H          5.48600        3.78900        5.75700
H          3.99100        4.93500        4.53100
H          5.24100        5.20800        2.67700
H          4.09300        4.05000        1.91400
H          5.37900        2.14700        2.53800
H         10.29900        3.17700       -1.69400
H         10.45900        4.86200       -1.07400
H          7.78900        5.39400       -0.78200
H          6.04400        5.02900        0.82700
H          0.13900        3.23200        2.35300
H         -0.41700        4.74800        3.09600
H         -2.39100        3.69500        4.00500
H         -1.00700        1.19300        3.50500
H         -2.23900        0.23800        1.90200
H         -3.81100        1.00500        2.47100
H         -1.80600        2.09400        0.57000
H         -4.51300        4.40400        1.01400
H         -3.41100       -2.01600       -2.24400
H         -4.84500       -2.74100       -1.43900
H         -3.22400       -0.16700       -0.22500
H         -4.28900       -0.36500        5.72600
H         -3.97400       -2.01000        6.33300
H         -5.10000       -1.12800        3.61900
H         -5.05600       -3.26300        2.86300
H         -6.48200       -4.71600        3.82200
H         -5.63500       -4.65300        5.45400
H         -7.48300       -3.27500        5.88200
H        -10.49500       -4.36100        2.37900
H         -8.90600       -0.37000        0.48200
H        -10.15400        0.30300        1.56300
H         -8.34700        0.56100        1.88800
H         -7.45200       -0.79400        3.45100
H         -1.07300       -5.38500        1.21400
H         -0.73200       -5.75300        2.91300
H          1.30100       -4.23300        2.78100
H          1.94900       -3.18500        0.74400
H          1.58700       -4.20900       -1.22800
H         -0.03000       -4.95000       -0.70400
H          2.85800       -5.51200        0.10200
H          1.52000       -8.61700        0.94700
H         -0.03300      -10.33500       -4.37900
H          1.65800      -10.77400       -4.10100
H          1.35300       -5.68100       -4.89500
H          0.69000        1.41100       -0.37600
H          1.84000        0.39300       -1.22700
H          0.40400        0.51200       -3.27400
H          1.72200        2.25100       -3.86500
H         -0.21600        3.52400       -4.19100
H          0.53600        4.54500       -2.89700
H         -0.62900        3.37100       -1.14300
H         -5.93000        6.66600       -2.53300
H         -6.42100        5.55300       -3.83800
H         -5.18900        3.35200       -3.92700
H         -3.04100        2.10100       -3.51300
H          4.50400        0.73900       -1.93500
H          3.18800        0.46800       -3.19400
H          6.20200        0.42100       -3.66100
H          3.81800       -0.04200       -5.49600
H          5.58900        1.77300       -5.37000
H          6.56900       -1.21000       -5.62000
H          5.03200       -1.60300       -6.60200
H          3.86300       -2.24200       -4.57100
H          4.67100       -3.64600       -2.08100
H          7.71500       -5.49400       -8.68700
H          9.07600       -4.63500       -7.96000
H          6.62500       -3.37000       -6.63000
