189
215d_DNA_conf17.pdb
O          6.43000       -0.22400        8.88500
C          5.57400       -1.13300        8.27400
C          4.19800       -0.50500        8.27400
O          4.16500        0.69600        7.58200
C          3.14200       -1.39400        7.70500
O          3.67900       -2.06400        6.60500
C          2.20600       -0.33700        7.09400
C          3.29400        0.57900        6.51800
N          2.70800        1.80700        6.07700
C          3.18000        3.02100        6.34800
O          4.22500        3.09900        7.04600
N          2.55200        4.13100        5.88400
C          1.44600        4.07700        5.14500
N          0.76900        5.23800        4.64600
C          0.92600        2.83500        4.84300
C          1.58000        1.72100        5.32400
P          3.33500       -3.71600        6.60100
O          3.10700       -4.30400        8.16700
O          4.50400       -4.41700        5.93400
O          1.97400       -4.04100        5.61600
C          1.19900       -4.97200        6.30200
C         -0.06400       -5.31700        5.54000
O         -0.77600       -6.23200        6.26100
C          0.22900       -5.88700        4.17100
O         -0.82500       -5.61700        3.31400
C          0.21700       -7.37100        4.46600
C         -0.70500       -7.45900        5.63300
N         -0.33800       -8.52600        6.54400
C          0.55400       -9.50900        6.41000
N          0.54700      -10.26500        7.52300
C         -0.35000       -9.77200        8.37900
C         -0.81100      -10.08500        9.64300
O         -0.30200      -11.09700       10.22400
N         -1.77300       -9.34900       10.25900
C         -2.30600       -8.27700        9.63200
N         -3.31100       -7.49400       10.25700
N         -1.86000       -7.96900        8.40200
C         -0.91200       -8.66800        7.75600
P         -0.36400       -4.82300        1.90900
O         -0.94300       -5.76500        0.60900
O         -1.00900       -3.46500        1.79000
O          1.29300       -4.67600        1.73500
C          1.75700       -3.36400        1.87800
C          3.24400       -3.40200        1.77900
O          3.81600       -2.11500        1.91700
C          3.61300       -3.65200        0.31400
O          3.01700       -2.65300       -0.41600
C          5.13000       -3.39600        0.45400
C          5.11200       -2.21900        1.36200
N          5.58800       -0.98500        0.82900
C          5.97600       -0.01800        1.69300
O          5.92500       -0.19100        2.94900
N          6.43900        1.18000        1.26700
C          6.54000        1.48100       -0.03700
O          6.96300        2.57700       -0.47700
C          6.15300        0.52100       -0.95300
C          6.21900        0.73800       -2.42500
C          5.68700       -0.68700       -0.47700
P          2.16100       -3.14200       -1.75600
O          0.81400       -4.04500       -1.28000
O          3.00200       -4.00100       -2.67300
O          1.56300       -1.78200       -2.57000
C          2.17100       -0.65900       -2.06900
C          1.78100        0.63100       -2.75400
O          2.52300        1.63500       -2.08800
C          0.33300        0.96400       -2.49800
O         -0.11600        0.24200       -1.42100
C          0.36500        2.46700       -2.17300
C          1.80600        2.76900       -2.38000
N          2.26400        3.94900       -1.70600
C          3.53800        4.38000       -1.73700
N          3.63900        5.50400       -1.01100
C          2.44600        5.83000       -0.49400
C          1.98200        6.86000        0.31100
N          2.88200        7.85600        0.75100
N          0.66300        6.86100        0.64200
C         -0.17200        5.88800        0.20100
N          0.29700        4.88800       -0.58400
C          1.58400        4.83000       -0.94600
P         -1.55500       -0.57600       -1.72500
O         -1.99400       -1.45400       -0.34900
O         -1.49200       -1.51200       -2.88800
O         -2.81700        0.55100       -1.97900
C         -4.00400       -0.13300       -2.22300
C         -5.13100        0.83900       -2.50100
O         -5.37100        1.69400       -1.46100
C         -4.82900        1.70100       -3.68800
O         -5.98100        2.01200       -4.40900
C         -4.21200        2.92300       -3.05900
C         -4.72900        2.88800       -1.66100
N         -5.73400        3.93100       -1.47800
C         -7.05100        3.66400       -1.40100
O         -7.38900        2.44500       -1.49700
N         -7.99100        4.61100       -1.23200
C         -7.66700        5.91200       -1.12700
N         -8.69000        6.88200       -0.94800
C         -6.32600        6.22500       -1.20100
C         -5.35200        5.23500       -1.37700
P         -5.77300        1.58200       -6.02000
O         -7.11400        1.13400       -6.56700
O         -4.73400        0.23600       -6.17100
O         -5.11200        2.82200       -6.95200
C         -3.74100        2.74300       -6.87900
C         -3.07600        3.76600       -7.77900
O         -3.39700        3.62400       -9.11400
C         -1.57300        3.58100       -7.76500
O         -0.93900        4.72200       -8.25400
C         -1.39900        2.48100       -8.77700
C         -2.65600        2.55200       -9.60000
N         -3.39500        1.31700       -9.58800
C         -2.96100        0.05700       -9.41800
N         -3.97300       -0.81900       -9.47200
C         -5.11300       -0.12100       -9.68400
C         -6.45400       -0.48600       -9.82700
O         -6.76900       -1.70000       -9.75900
N         -7.37900        0.49400      -10.03700
C         -6.99900        1.78100      -10.10300
N         -7.98600        2.80600      -10.32400
N         -5.70000        2.11900       -9.96300
C         -4.72800        1.21100       -9.75300
H          6.07000        0.71300        8.82200
H          5.51400       -2.02400        8.93700
H          5.89300       -1.44700        7.26700
H          3.94500       -0.28000        9.33600
H          2.61000       -2.03100        8.41100
H          1.71000        0.19300        7.91400
H          1.56100       -0.77100        6.33100
H          3.76900       -0.00900        5.68800
H          1.30700        5.90800        4.04200
H         -0.25200        5.41000        4.88600
H          0.02600        2.72600        4.24300
H          1.13400        0.76100        5.06100
H          1.75300       -5.86400        6.62000
H          0.87300       -4.45700        7.23400
H         -0.68700       -4.41700        5.38600
H          1.20300       -5.53500        3.77300
H         -0.19900       -7.94800        3.59500
H          1.24100       -7.75700        4.69900
H         -1.72200       -7.69700        5.26200
H          1.18400       -9.65700        5.51900
H         -3.46000       -7.49400       11.28200
H         -3.92100       -6.89600        9.64600
H         -2.28400       -7.14000        7.93800
H          1.36700       -2.72100        1.06400
H          1.38800       -2.90100        2.81700
H          3.72300       -4.12200        2.46400
H          3.42400       -4.67200       -0.01800
H          5.64400       -3.31100       -0.48800
H          5.51900       -4.31000        0.95700
H          5.76400       -2.46100        2.24600
H          6.73300        1.91200        1.94200
H          7.06500        1.40400       -2.68800
H          5.29700        1.15600       -2.85500
H          6.44100       -0.22800       -2.96100
H          5.38800       -1.43000       -1.20300
H          3.26800       -0.82900       -2.13800
H          1.95800       -0.63000       -0.98100
H          2.00700        0.61500       -3.82800
H         -0.32200        0.80900       -3.40200
H         -0.02800        2.58300       -1.16700
H         -0.31500        3.00700       -2.86600
H          1.94900        2.96600       -3.48300
H          4.37700        3.93600       -2.24500
H          2.88300        8.80100        0.29300
H          3.56200        7.66200        1.54300
H         -1.21000        5.89400        0.46600
H         -3.88900       -0.76900       -3.12200
H         -4.29500       -0.79300       -1.39500
H         -6.04400        0.25500       -2.70300
H         -4.06700        1.25300       -4.36200
H         -3.12000        2.91600       -3.13300
H         -4.57300        3.79100       -3.64600
H         -3.91200        3.03100       -0.91500
H         -8.98600        7.48100       -1.75800
H         -9.11500        6.96000        0.01000
H         -6.02500        7.25100       -1.12200
H         -4.31200        5.46900       -1.43500
H         -3.41500        3.00500       -5.84900
H         -3.32400        1.75400       -7.09900
H         -3.30800        4.79500       -7.43900
H         -1.18500        3.28200       -6.77200
H         -0.78700        4.66400       -9.22000
H         -1.41300        1.51700       -8.19400
H         -0.46900        2.55300       -9.34300
H         -2.38500        2.78900      -10.65100
H         -1.92800       -0.24300       -9.25600
H         -8.89700        2.75800       -9.80600
H         -7.80000        3.58600      -10.99000
H         -5.49000        3.14700      -10.02800
