189
215d_DNA_conf6.pdb
O          5.00900       -6.75400       -0.22300
C          5.42100       -8.08100       -0.26000
C          4.40300       -9.02700        0.37900
O          4.23600       -8.64900        1.69800
C          3.08000       -8.99600       -0.31100
O          2.69600      -10.16000       -0.92900
C          2.15000       -8.70400        0.87000
C          3.12100       -7.86300        1.71200
N          2.60200       -7.63100        3.04900
C          2.53400       -6.38600        3.57000
O          2.93000       -5.42400        2.87500
N          2.05900       -6.13100        4.80300
C          1.61400       -7.10800        5.61000
N          1.11600       -6.81400        6.91400
C          1.66600       -8.40100        5.11500
C          2.16200       -8.63900        3.83700
P          2.04200       -9.79200       -2.45800
O          1.53000      -11.24300       -3.17600
O          3.05000       -9.15700       -3.37200
O          0.68000       -8.81900       -2.30500
C          0.75600       -7.62200       -3.00700
C         -0.43800       -6.80000       -2.54500
O         -0.24900       -6.64400       -1.15500
C         -0.40800       -5.38000       -2.99300
O         -0.37700       -5.16200       -4.34300
C          0.80700       -4.85600       -2.24300
C          0.70000       -5.67600       -0.96900
N          0.41600       -4.84600        0.17800
C          1.14800       -3.73900        0.49500
N          0.65000       -3.17500        1.60900
C         -0.41200       -3.90200        2.03500
C         -1.29100       -3.79000        3.10900
O         -1.14700       -2.85000        3.90100
N         -2.26000       -4.73500        3.21400
C         -2.39000       -5.74300        2.33800
N         -3.42300       -6.74000        2.45900
N         -1.51800       -5.81100        1.31700
C         -0.52500       -4.93000        1.12100
P         -1.70800       -4.13200       -4.68800
O         -1.54500       -3.42300       -6.19000
O         -2.92000       -5.04900       -4.72400
O         -1.92400       -3.05300       -3.43300
C         -3.06900       -2.29700       -3.49800
C         -3.13300       -1.48500       -2.19900
O         -3.17200       -2.31800       -1.10900
C         -4.27600       -0.53700       -2.15000
O         -3.85400        0.59800       -1.47100
C         -5.26700       -1.27400       -1.27400
C         -4.40000       -2.20300       -0.50400
N         -4.30500       -1.80000        0.90700
C         -5.25600       -2.24200        1.77200
O         -6.20600       -2.98100        1.37700
N         -5.22800       -1.91100        3.08800
C         -4.23100       -1.12500        3.54300
O         -4.18500       -0.80600        4.75800
C         -3.24800       -0.65700        2.69900
C         -2.13800        0.21100        3.18000
C         -3.30900       -1.01700        1.35500
P         -4.12500        2.03300       -2.32400
O         -5.32000        1.80700       -3.50500
O         -2.82800        2.34600       -3.07300
O         -4.44300        3.31700       -1.31000
C         -4.29400        4.52100       -1.94800
C         -4.48100        5.69900       -1.00400
O         -5.70300        5.72800       -0.41800
C         -3.44800        5.53400        0.09800
O         -2.40400        4.70600       -0.32100
C         -4.28700        4.89000        1.16000
C         -5.64200        5.48800        0.93100
N         -6.60500        4.46000        1.33400
C         -7.67200        4.09400        0.59700
N         -8.36500        3.11500        1.23900
C         -7.71000        2.86500        2.40700
C         -7.97300        1.98100        3.42200
N         -9.11700        1.15100        3.28700
N         -7.14300        1.94600        4.47800
C         -6.06600        2.77400        4.53000
N         -5.80700        3.65200        3.51600
C         -6.61900        3.71000        2.44800
P         -0.90200        5.47700       -0.29100
O         -0.55100        6.03700        1.25000
O         -0.87300        6.64400       -1.25400
O          0.23400        4.32900       -0.83000
C          0.85900        3.76300        0.26800
C          1.74400        2.64600       -0.17800
O          1.04700        1.64600       -0.83800
C          2.71200        3.09400       -1.23500
O          2.15700        3.82100       -2.26300
C          3.21300        1.72700       -1.73500
C          1.96500        0.88800       -1.52100
N          1.49800        0.53800       -2.86300
C          2.24700       -0.36100       -3.54200
O          3.27800       -0.85700       -3.03600
N          1.87900       -0.73600       -4.79600
C          0.77500       -0.22000       -5.36700
N          0.44600       -0.65300       -6.68100
C          0.03200        0.69100       -4.65500
C          0.38000        1.09100       -3.38400
P          3.09900        5.19400       -2.53200
O          2.86500        5.69100       -3.95300
O          4.72600        4.70000       -2.36500
O          2.78100        6.44000       -1.43900
C          3.96700        6.80300       -0.80000
C          3.82000        8.04200        0.05200
O          5.04000        8.31300        0.63900
C          3.44900        9.25200       -0.78000
O          2.38800        9.91300       -0.20400
C          4.70400       10.09600       -0.69500
C          5.72600        9.08300       -0.29500
N          6.91500        9.69100        0.27200
C          7.32000       10.92700        0.00300
N          8.45900       11.15500        0.70100
C          8.78500       10.06900        1.41500
C          9.83500        9.78500        2.28100
O         10.72000       10.65000        2.51600
N          9.84900        8.55900        2.84100
C          8.87800        7.64200        2.56800
N          8.98800        6.38200        3.20800
N          7.86800        7.93100        1.72800
C          7.79300        9.14200        1.13400
H          5.43400       -6.22900        0.50300
H          6.38500       -8.13300        0.26100
H          5.51400       -8.35400       -1.34800
H          4.84900      -10.04900        0.40800
H          2.94500       -8.11000       -0.99800
H          1.91900       -9.60500        1.43500
H          1.32300       -8.05300        0.59600
H          3.20700       -6.88400        1.22500
H          0.46400       -7.48800        7.40900
H          1.41300       -5.91300        7.37100
H          1.32600       -9.23200        5.71300
H          2.19500       -9.66900        3.46100
H          1.69000       -7.10100       -2.80000
H          0.72300       -7.80400       -4.10200
H         -1.37700       -7.32200       -2.73700
H         -1.28500       -4.87300       -2.53100
H          0.75100       -3.80100       -1.97900
H          1.73900       -5.04200       -2.79600
H          1.72500       -6.09200       -0.78100
H          2.00200       -3.33000       -0.02700
H         -3.23300       -7.75200        2.29200
H         -4.40400       -6.48200        2.72200
H         -1.64600       -6.60700        0.65600
H         -3.93200       -3.00200       -3.57000
H         -3.14000       -1.63400       -4.36900
H         -2.15400       -0.93900       -2.14700
H         -4.70200       -0.34900       -3.13500
H         -5.74100       -0.53700       -0.60800
H         -5.98900       -1.85300       -1.90300
H         -4.85700       -3.23600       -0.53500
H         -5.98700       -2.27900        3.71700
H         -1.14500       -0.23100        2.93100
H         -2.23600        1.22700        2.75500
H         -2.24200        0.30800        4.27700
H         -2.54800       -0.66000        0.67700
H         -3.28500        4.55700       -2.41100
H         -5.01100        4.65500       -2.79600
H         -4.21900        6.63400       -1.52300
H         -3.08100        6.52200        0.43400
H         -4.35100        3.80400        0.94300
H         -3.90200        5.08300        2.18700
H         -5.78900        6.41500        1.53100
H         -7.98900        4.47100       -0.35300
H         -9.06800        0.10700        3.29400
H        -10.07900        1.55500        3.17200
H         -5.43200        2.70300        5.40300
H          0.15100        3.43500        1.06000
H          1.49100        4.57900        0.70600
H          2.31500        2.24300        0.68700
H          3.56600        3.62700       -0.77300
H          3.53500        1.77700       -2.77800
H          3.98000        1.36900       -1.04400
H          2.20900       -0.08000       -1.02800
H          0.40200       -1.65800       -6.96500
H          0.23500        0.09000       -7.40500
H         -0.85700        1.11200       -5.10500
H         -0.15100        1.79000       -2.78600
H          4.29600        5.98300       -0.12700
H          4.74600        6.91100       -1.57700
H          3.09200        7.87900        0.85900
H          3.23300        8.94100       -1.82400
H          2.37100       10.83600       -0.61400
H          4.58200       10.81700        0.15100
H          4.93300       10.59700       -1.65800
H          5.97000        8.47400       -1.19800
H          6.83200       11.62200       -0.65000
H          9.28800        5.56900        2.61600
H          8.77100        6.30000        4.23300
H          7.11600        7.22800        1.51500
