189
215d_DNA_conf1.pdb
O         -7.23200       -2.70100        0.26000
C         -6.16500       -3.25600       -0.43200
C         -5.17200       -3.86800        0.54900
O         -5.85200       -4.84000        1.24200
C         -4.06400       -4.58600       -0.18300
O         -4.43300       -4.86400       -1.47200
C         -3.93900       -5.89300        0.55200
C         -4.98200       -5.83300        1.61400
N         -4.43500       -5.58600        2.93900
C         -4.97700       -4.69800        3.78200
O         -6.00500       -4.03200        3.44300
N         -4.49000       -4.45200        5.01100
C         -3.40800       -5.11900        5.43000
N         -2.83700       -4.90100        6.73400
C         -2.79200       -6.05600        4.60900
C         -3.34900       -6.26400        3.34500
P         -3.31900       -4.40800       -2.64700
O         -3.06500       -5.69400       -3.75300
O         -3.98300       -3.30300       -3.47500
O         -1.84400       -3.90700       -2.05500
C         -0.98900       -4.91100       -1.69100
C          0.46700       -4.50800       -1.63000
O          0.90000       -4.07000       -2.87800
C          0.78500       -3.42400       -0.66800
O         -0.05800       -3.26700        0.39900
C          0.61500       -2.18400       -1.54200
C          0.89900       -2.71000       -2.90000
N         -0.08000       -2.25600       -3.89000
C         -0.89500       -1.19300       -3.72900
N         -1.67900       -1.04700       -4.83800
C         -1.33400       -2.03800       -5.68700
C         -1.86200       -2.28800       -6.94100
O         -2.77000       -1.57900       -7.44300
N         -1.32600       -3.35800       -7.59200
C         -0.36000       -4.07800       -7.00900
N          0.14400       -5.18900       -7.77700
N          0.14400       -3.82400       -5.78800
C         -0.35200       -2.77500       -5.09900
P          0.66700       -3.16100        1.89700
O         -0.56700       -2.73000        3.00300
O          1.13400       -4.54700        2.35600
O          1.88500       -2.03300        2.02500
C          1.72900       -1.11500        3.06200
C          2.89600       -0.16500        3.15400
O          2.70600        0.71600        4.18600
C          4.19500       -0.94600        3.44100
O          5.24400       -0.41100        2.73700
C          4.37600       -0.55000        4.89400
C          3.99500        0.91700        4.72900
N          4.03100        1.71200        5.88900
C          4.17000        1.30600        7.15900
O          4.28900        0.08100        7.40200
N          4.19100        2.14800        8.21500
C          4.07200        3.48500        8.06900
O          4.08900        4.28100        9.05700
C          3.92600        3.94900        6.76900
C          3.78900        5.40400        6.49300
C          3.90900        3.06500        5.71900
P          5.69000       -1.30800        1.38900
O          5.12300       -2.87000        1.36400
O          7.19600       -1.33100        1.32000
O          5.15400       -0.52000       -0.03600
C          5.93900       -0.99100       -1.08100
C          5.88300        0.03600       -2.19800
O          6.64600       -0.43300       -3.24600
C          4.49400        0.24300       -2.67600
O          3.49000        0.17900       -1.74700
C          4.41800       -0.87200       -3.73700
C          5.81000       -0.69100       -4.32600
N          5.80000        0.46700       -5.20300
C          5.08900        0.68600       -6.32400
N          5.37100        1.90800       -6.83500
C          6.26600        2.48300       -6.04600
C          6.92800        3.68900       -6.02800
N          6.71800        4.67700       -7.02800
N          7.82300        4.00900       -5.05000
C          8.08400        3.12800       -4.05800
N          7.42500        1.96400       -4.10100
C          6.53800        1.60000       -5.03500
P          2.42800        1.49000       -1.86100
O          3.36000        2.88600       -2.00500
O          1.51400        1.27500       -3.06000
O          1.44600        1.52100       -0.47900
C          0.68400        2.66400       -0.43100
C         -0.18100        2.84100        0.77700
O          0.54100        2.85400        1.95900
C         -1.32700        1.93400        0.92800
O         -1.22300        0.66300        0.42400
C         -1.56000        1.91800        2.43600
C         -0.30000        2.47700        2.98600
N         -0.46600        3.46600        4.02800
C         -1.29200        4.52100        3.92900
O         -1.97900        4.69400        2.88200
N         -1.45100        5.44400        4.89500
C         -0.77100        5.36000        6.05100
N         -0.97600        6.36900        7.03700
C          0.08300        4.30800        6.21200
C          0.22600        3.37700        5.20400
P         -2.73400        0.29600       -0.27600
O         -2.85400       -1.18600       -0.38000
O         -3.98500        0.80900        0.77400
O         -2.94100        1.12200       -1.71800
C         -4.31000        1.31400       -1.93400
C         -4.53800        2.29300       -3.07800
O         -3.96100        3.50400       -2.80700
C         -6.01700        2.56300       -3.20500
O         -6.65000        2.33200       -1.98300
C         -6.08300        4.00900       -3.58000
C         -4.67200        4.47900       -3.49300
N         -4.55400        5.77200       -2.85300
C         -4.37900        6.98800       -3.37500
N         -4.31800        7.90600       -2.37800
C         -4.45600        7.27000       -1.20300
C         -4.47900        7.63200        0.12500
O         -4.34400        8.85300        0.41500
N         -4.64300        6.69800        1.09500
C         -4.78600        5.39700        0.79500
N         -4.95700        4.38100        1.78500
N         -4.76400        5.05100       -0.49800
C         -4.60400        5.93200       -1.50800
H         -7.01600       -2.30900        1.12500
H         -5.69600       -2.49400       -1.08100
H         -6.58900       -4.04400       -1.08800
H         -4.79200       -3.04800        1.18900
H         -3.10000       -4.07600       -0.11600
H         -4.13300       -6.76300       -0.11800
H         -2.90900       -6.05500        0.94800
H         -5.56700       -6.79200        1.60100
H         -2.76400       -5.70300        7.40900
H         -2.50100       -3.93300        6.99000
H         -1.91500       -6.59400        4.94900
H         -2.84000       -7.00500        2.73800
H         -1.23000       -5.41600       -0.73400
H         -1.02400       -5.73300       -2.46800
H          1.03800       -5.44800       -1.43200
H          1.84000       -3.49700       -0.31500
H         -0.38600       -1.74600       -1.41700
H          1.33400       -1.40100       -1.28000
H          1.88000       -2.36500       -3.32800
H         -0.99100       -0.50600       -2.90300
H          0.98700       -4.95400       -8.36300
H         -0.29600       -6.13200       -7.74700
H          0.90600       -4.40400       -5.34400
H          1.62100       -1.69000        3.99900
H          0.81100       -0.56700        2.86400
H          2.97100        0.37700        2.20600
H          4.01700       -2.00900        3.32500
H          5.41800       -0.70600        5.18900
H          3.64000       -1.08000        5.54200
H          4.58000        1.32500        3.87000
H          4.29900        1.81200        9.20300
H          4.40600        5.58000        5.56200
H          4.25000        6.03600        7.28500
H          2.77000        5.72300        6.27300
H          3.79100        3.48900        4.71000
H          6.97800       -1.12700       -0.72500
H          5.61800       -1.99400       -1.43000
H          6.24400        0.99900       -1.79400
H          4.38100        1.22200       -3.20800
H          3.62700       -0.71600       -4.46500
H          4.40700       -1.85600       -3.23400
H          6.14300       -1.61600       -4.81600
H          4.38800       -0.01300       -6.76100
H          5.77500        5.12300       -7.06400
H          7.49300        4.92800       -7.68700
H          8.78200        3.32400       -3.25600
H         -0.00500        2.65700       -1.32200
H          1.40100        3.52500       -0.55000
H         -0.59900        3.89300        0.67800
H         -2.29400        2.35200        0.52000
H         -1.72900        0.84100        2.70900
H         -2.48600        2.42700        2.74100
H          0.22300        1.61400        3.49400
H         -0.23800        7.04300        7.31200
H         -1.91700        6.45000        7.52300
H          0.64300        4.22600        7.15200
H          0.92500        2.55200        5.38600
H         -4.76800        0.34500       -2.25400
H         -4.83000        1.67900       -1.03700
H         -4.09700        1.82700       -3.98200
H         -6.44100        1.89400       -3.98400
H         -7.42500        1.72600       -2.14000
H         -6.45600        4.10800       -4.62600
H         -6.74900        4.56500       -2.87600
H         -4.23200        4.58200       -4.50600
H         -4.29600        7.21900       -4.42000
H         -5.30900        3.44000        1.50000
H         -4.73200        4.57200        2.80200
H         -4.87400        4.05300       -0.72800
