189
215d_DNA_conf32.pdb
O          4.81400        5.00900       -2.38200
C          4.86500        5.39700       -3.71700
C          3.46100        5.84200       -4.16000
O          3.12600        6.89000       -3.35100
C          2.47300        4.72700       -4.02300
O          1.61200        4.59700       -5.09400
C          1.68100        5.16700       -2.78700
C          1.92500        6.67300       -2.73300
N          0.82300        7.42500       -3.31000
C         -0.35600        7.44000       -2.66000
O         -0.53700        6.81600       -1.56300
N         -1.43200        8.11500       -3.12300
C         -1.34000        8.80300       -4.27500
N         -2.48800        9.50000       -4.73800
C         -0.13600        8.81000       -4.97600
C          0.96200        8.10200       -4.47200
P          1.58200        3.08100       -5.79200
O          2.99600        2.81600       -6.70000
O          0.41900        3.00800       -6.77000
O          1.44400        1.81300       -4.71500
C          0.30700        1.01800       -4.96100
C          0.40500       -0.17400       -4.00600
O          1.54000       -0.90900       -4.21400
C         -0.74400       -1.10400       -4.09700
O         -1.33200       -1.46700       -2.89900
C         -0.23200       -2.30500       -4.86800
C          1.24700       -2.15700       -4.68100
N          2.00600       -2.54500       -5.85400
C          1.73900       -2.17800       -7.12500
N          2.63900       -2.71000       -7.97100
C          3.49000       -3.42300       -7.24900
C          4.60000       -4.17000       -7.62900
O          4.95000       -4.25200       -8.85600
N          5.30000       -4.80700       -6.66500
C          4.92200       -4.71500       -5.36600
N          5.70300       -5.41500       -4.38100
N          3.83200       -3.98000       -5.00400
C          3.10900       -3.32900       -5.93300
P         -2.97600       -1.33400       -2.86000
O         -3.76500       -2.81400       -2.64700
O         -3.56300       -0.72100       -4.12400
O         -3.45300       -0.33300       -1.60300
C         -2.52200        0.60000       -1.20100
C         -3.29100        1.67000       -0.43400
O         -4.21900        2.16700       -1.36300
C         -2.47000        2.82100        0.03100
O         -1.13900        2.59900       -0.22500
C         -3.02100        3.96800       -0.82800
C         -3.53200        3.15600       -2.01300
N         -4.32000        3.97100       -2.90500
C         -3.66500        4.50000       -3.97800
O         -2.42100        4.26100       -4.16500
N         -4.27700        5.28500       -4.88100
C         -5.57200        5.54300       -4.70100
O         -6.13700        6.28800       -5.56500
C         -6.26000        5.02000       -3.62000
C         -7.69700        5.35500       -3.48300
C         -5.62300        4.19900       -2.67800
P         -0.13500        3.12200        1.02200
O         -1.03600        3.83300        2.27300
O          0.94500        4.06100        0.53400
O          0.62900        1.78300        1.69300
C          1.85700        1.60600        1.00500
C          2.69300        0.75500        1.92400
O          3.94100        0.43500        1.44700
C          2.09000       -0.55900        2.24000
O          2.18200       -0.99700        3.51100
C          2.57200       -1.42200        1.13400
C          3.93900       -0.81300        0.89500
N          4.25700       -0.68900       -0.51100
C          3.46100       -0.56600       -1.58100
N          4.22700       -0.47700       -2.70300
C          5.49900       -0.54200       -2.34400
C          6.69900       -0.50400       -3.01800
N          6.74300       -0.36400       -4.43400
N          7.86400       -0.59300       -2.36600
C          7.88200       -0.72300       -1.01400
N          6.72100       -0.76200       -0.33500
C          5.54300       -0.67600       -0.95800
P          0.83300       -1.01600        4.45100
O          0.44800        0.44400        5.18400
O         -0.35100       -1.43500        3.61400
O          1.01000       -2.14800        5.69400
C          2.22200       -2.83900        5.62000
C          2.54200       -3.53000        6.92900
O          2.64100       -2.59700        7.95800
C          1.57300       -4.57500        7.33900
O          2.17400       -5.81500        7.56800
C          0.99400       -4.02500        8.64700
C          1.40400       -2.59600        8.59300
N          1.52200       -1.93400        9.85900
C          0.89400       -2.29300       10.98800
O          0.12700       -3.31200       10.94100
N          1.06200       -1.60200       12.15200
C          1.86800       -0.52100       12.22600
N          2.06400        0.22300       13.42300
C          2.53300       -0.12500       11.06700
C          2.34200       -0.84600        9.90700
P          1.42300       -7.08400        6.75900
O          2.41700       -7.67000        5.77400
O          1.08700       -8.27600        7.94300
O          0.03700       -6.65300        5.93200
C          0.09200       -6.96000        4.58500
C         -1.23900       -6.97800        3.89300
O         -1.84700       -5.72800        4.00300
C         -1.05400       -7.20700        2.40300
O          0.27800       -7.06900        2.01700
C         -1.92500       -6.12600        1.79300
C         -2.75900       -5.66800        2.94600
N         -3.22800       -4.32200        2.80800
C         -2.59100       -3.31100        2.22100
N         -3.33400       -2.20600        2.28400
C         -4.47400       -2.49900        2.92300
C         -5.56200       -1.71400        3.24300
O         -5.56200       -0.49200        2.91000
N         -6.58000       -2.29500        3.89900
C         -6.51100       -3.61500        4.22400
N         -7.62500       -4.14900        4.91000
N         -5.45200       -4.37800        3.91300
C         -4.39700       -3.84300        3.25100
H          4.82700        5.83300       -1.82200
H          5.29100        4.64100       -4.39200
H          5.49800        6.32100       -3.80300
H          3.52800        6.11400       -5.23800
H          2.98300        3.74100       -3.81800
H          0.61900        5.01900       -2.99000
H          2.08200        4.67800       -1.89300
H          1.99600        7.01900       -1.66900
H         -2.81300        9.42600       -5.74200
H         -3.07000       10.11900       -4.11400
H         -0.06200        9.36800       -5.90800
H          1.91100        8.09100       -4.99600
H         -0.57000        1.61100       -4.62800
H          0.23300        0.72000       -6.01300
H          0.40100        0.31600       -2.98700
H         -1.53900       -0.65100       -4.72300
H         -0.61600       -3.26600       -4.47000
H         -0.55900       -2.26500       -5.93000
H          1.54900       -2.89500       -3.87900
H          0.92300       -1.54700       -7.43800
H          6.05900       -4.81100       -3.58000
H          5.90600       -6.43400       -4.44200
H          3.55300       -3.91300       -4.01200
H         -1.85800        0.98200       -1.97000
H         -1.88200        0.08200       -0.42500
H         -3.82100        1.17400        0.41900
H         -2.62300        3.09700        1.11700
H         -3.86300        4.40200       -0.23500
H         -2.27900        4.71500       -1.08300
H         -2.63900        2.75700       -2.50200
H         -3.73100        5.66000       -5.68100
H         -8.18200        5.44400       -4.48300
H         -8.22800        4.57200       -2.93300
H         -7.82800        6.36800       -3.00000
H         -6.14500        3.78300       -1.83500
H          1.69100        1.12000        0.04800
H          2.28200        2.62000        0.89400
H          2.89100        1.38600        2.83100
H          0.97400       -0.40700        2.06700
H          1.93700       -1.29900        0.22900
H          2.73300       -2.48800        1.38900
H          4.73200       -1.41200        1.40700
H          2.39700       -0.53800       -1.59100
H          6.51200       -1.20500       -5.02800
H          6.99800        0.56000       -4.84500
H          8.80400       -0.79800       -0.45900
H          2.99800       -2.06000        5.47800
H          2.27300       -3.50700        4.75700
H          3.54500       -3.98800        6.81500
H          0.74300       -4.65700        6.62400
H         -0.10300       -4.18200        8.64200
H          1.49200       -4.59300        9.47000
H          0.65500       -2.03000        8.00000
H          1.25200        0.45600       14.07100
H          3.01900        0.57600       13.72500
H          3.17100        0.73900       11.14200
H          2.88000       -0.50100        9.01800
H          0.73200       -6.19700        4.10400
H          0.60000       -7.94800        4.41900
H         -1.88600       -7.79500        4.26900
H         -1.46400       -8.18400        2.07700
H          0.37600       -6.14300        1.66600
H         -2.58500       -6.54000        0.98500
H         -1.24700       -5.34000        1.38000
H         -3.60500       -6.38100        3.05500
H         -1.61100       -3.32800        1.74500
H         -7.57100       -4.78100        5.73600
H         -8.59200       -3.90600        4.57900
H         -5.43100       -5.37400        4.17300
