189
215d_DNA_conf36.pdb
O         -4.38900        3.57800       -6.99900
C         -3.34300        3.06500       -6.25100
C         -2.18600        4.00500       -6.23500
O         -1.09600        3.54400       -5.51300
C         -2.58300        5.32700       -5.57600
O         -3.15500        5.03800       -4.37000
C         -1.14300        5.79200       -5.23800
C         -0.71400        4.47500       -4.58800
N          0.66300        4.42200       -4.23800
C          1.64700        4.48800       -5.12900
O          1.40200        4.60800       -6.36000
N          2.96700        4.43200       -4.79300
C          3.35200        4.30300       -3.50600
N          4.73900        4.24200       -3.16200
C          2.35200        4.23100       -2.54600
C          1.03500        4.29200       -2.93300
P         -4.52900        5.88300       -3.96500
O         -5.81100        5.38400       -4.94500
O         -4.34400        7.36900       -3.98700
O         -4.95100        5.39700       -2.37500
C         -4.50600        6.33000       -1.42700
C         -4.56000        5.60700       -0.08200
O         -4.15700        6.38100        0.97600
C         -3.58000        4.44900       -0.12300
O         -3.95400        3.35700        0.61600
C         -2.31100        5.12900        0.32900
C         -2.77200        6.35200        1.06600
N         -2.27200        7.59600        0.53000
C         -2.99900        8.73000        0.29400
N         -2.19700        9.68300       -0.21400
C         -0.94700        9.19600       -0.31900
C          0.22200        9.77600       -0.77700
O          0.23200       10.95600       -1.19000
N          1.34300        9.01300       -0.75600
C          1.30000        7.73000       -0.29800
N          2.52400        7.00300       -0.31000
N          0.13700        7.19900        0.14100
C         -1.01300        7.89900        0.14800
P         -4.23000        2.08600       -0.47300
O         -2.99900        2.14700       -1.65600
O         -5.53800        2.27900       -1.23000
O         -4.18700        0.57400        0.27300
C         -3.09200       -0.15000       -0.19200
C         -3.23000       -1.62800       -0.08200
O         -2.08600       -2.30200       -0.57700
C         -3.28600       -2.17400        1.31400
O         -2.19800       -1.80300        2.08700
C         -3.10700       -3.67700        1.01900
C         -2.43300       -3.62800       -0.33600
N         -1.26400       -4.49200       -0.35200
C         -0.06900       -4.01100       -0.78700
O          0.02300       -2.82500       -1.17600
N          1.01900       -4.81300       -0.79900
C          0.91700       -6.10300       -0.37600
O          1.95100       -6.85100       -0.39300
C         -0.30700       -6.60200        0.07100
C         -0.38300       -8.02000        0.52900
C         -1.40100       -5.76000        0.07200
P         -2.66500       -1.39500        3.66600
O         -1.56100       -0.26100        4.24100
O         -4.06600       -0.84400        3.69900
O         -2.64400       -2.77600        4.66100
C         -1.91700       -2.46200        5.79900
C         -1.75300       -3.71500        6.63500
O         -2.93300       -4.26500        7.03600
C         -0.93100       -4.70700        5.89200
O         -1.01800       -4.51600        4.52900
C         -1.62600       -6.01800        6.22200
C         -2.97800       -5.59100        6.64300
N         -3.92800       -5.76700        5.58500
C         -3.92000       -6.53900        4.48900
N         -5.04300       -6.37500        3.76800
C         -5.79300       -5.47100        4.42100
C         -7.03300       -4.89000        4.19900
N         -7.79400       -5.22500        3.06700
N         -7.51400       -3.99300        5.07200
C         -6.84300       -3.61400        6.18500
N         -5.65000       -4.18100        6.38800
C         -5.11200       -5.08700        5.54800
P          0.50600       -4.43400        3.79700
O          1.62900       -4.20500        5.06900
O          0.78400       -5.68900        3.02700
O          0.54600       -3.07900        2.79000
C          1.84100       -2.56900        2.62200
C          1.80800       -1.28200        1.82200
O          1.04400       -0.31000        2.45900
C          3.17300       -0.73400        1.63000
O          3.36400       -0.41400        0.28900
C          3.23300        0.46100        2.52200
C          1.93000        0.38900        3.27900
N          1.41900        1.69400        3.64100
C          0.38100        2.24700        2.94800
O         -0.15200        1.63800        1.99000
N         -0.05100        3.45800        3.32100
C          0.51600        4.11800        4.34900
N          0.06900        5.41000        4.76000
C          1.57900        3.57300        5.07300
C          2.00400        2.32700        4.66900
P          4.73700       -1.05200       -0.40100
O          5.36700       -2.17800        0.37700
O          5.85900        0.22800       -0.61200
O          4.34500       -1.66100       -1.93100
C          3.73600       -0.74800       -2.75600
C          3.41600       -1.38200       -4.08800
O          4.59100       -1.81600       -4.67700
C          2.46700       -2.52900       -3.98900
O          1.22500       -2.22600       -4.52600
C          3.20700       -3.59600       -4.80500
C          4.64000       -3.17300       -4.52100
N          5.56200       -3.84700       -5.37400
C          5.38600       -4.90100       -6.21500
N          6.56300       -5.19600       -6.82300
C          7.49300       -4.34400       -6.38200
C          8.85400       -4.18900       -6.66300
O          9.42800       -4.96600       -7.49600
N          9.55900       -3.20100       -6.03700
C          8.92400       -2.38300       -5.15000
N          9.64200       -1.34400       -4.48200
N          7.60600       -2.55100       -4.89300
C          6.86700       -3.51200       -5.48600
H         -5.15900        2.97500       -7.04100
H         -3.02100        2.05100       -6.54700
H         -3.71600        2.98800       -5.20200
H         -1.85700        4.15100       -7.28100
H         -3.07800        6.03000       -6.22600
H         -1.13600        6.64200       -4.56200
H         -0.61300        5.92400       -6.20000
H         -1.36300        4.39800       -3.68500
H          5.21800        4.96500       -2.58500
H          5.25600        3.41000       -3.53500
H          2.68700        4.12900       -1.52300
H          0.29700        4.23100       -2.13100
H         -5.26200        7.13500       -1.38600
H         -3.50700        6.70100       -1.67400
H         -5.60200        5.30700        0.05500
H         -3.53700        4.12900       -1.19000
H         -1.67000        4.45900        0.93500
H         -1.78300        5.41400       -0.63000
H         -2.41800        6.30300        2.13800
H         -4.07600        8.79700        0.50800
H          2.95900        6.65100        0.57000
H          2.94900        6.85200       -1.26300
H          0.15800        6.21500        0.48300
H         -2.19800        0.24200        0.35000
H         -2.98600        0.11400       -1.26400
H         -4.09300       -2.02600       -0.65700
H         -4.23400       -2.01200        1.85000
H         -4.10400       -4.12200        0.90500
H         -2.47700       -4.14500        1.80100
H         -3.13600       -3.91800       -1.13900
H          1.95500       -4.47400       -1.12800
H         -0.77400       -8.61000       -0.34100
H          0.64800       -8.36400        0.81100
H         -0.99600       -8.11200        1.43100
H         -2.35500       -6.16700        0.42500
H         -2.42100       -1.65400        6.36400
H         -0.89000       -2.09600        5.55700
H         -1.23200       -3.36600        7.57500
H          0.12500       -4.75700        6.24600
H         -1.11600       -6.51700        7.08900
H         -1.61300       -6.72800        5.39800
H         -3.30200       -6.22300        7.52300
H         -3.13600       -7.21600        4.19000
H         -7.39400       -5.57900        2.16100
H         -8.83900       -5.12700        3.09400
H         -7.24200       -2.88600        6.88700
H          2.20800       -2.30200        3.63500
H          2.53200       -3.28300        2.13400
H          1.32900       -1.51200        0.85100
H          3.97000       -1.44300        1.98400
H          3.21100        1.42200        1.96700
H          4.07200        0.41300        3.24500
H          2.06200       -0.23400        4.19600
H         -0.22800        5.55700        5.75500
H          0.02400        6.23100        4.08900
H          2.04900        4.07300        5.89500
H          2.83000        1.84600        5.19500
H          2.77600       -0.35900       -2.36000
H          4.37300        0.14100       -2.94600
H          2.97400       -0.60800       -4.77600
H          2.40000       -2.89800       -2.92900
H          1.04900       -2.72100       -5.34500
H          3.04800       -4.58900       -4.32800
H          2.94100       -3.58200       -5.86300
H          4.81400       -3.39200       -3.43600
H          4.42100       -5.39800       -6.34300
H         10.47000       -0.86900       -4.88800
H          9.32200       -1.03500       -3.52200
H          7.15100       -1.89600       -4.20100
