189
215d_DNA_conf15.pdb
O          2.47900       -0.68400        7.55800
C          2.50100       -1.66100        6.55700
C          3.32600       -1.21400        5.37000
O          4.63000       -0.96900        5.76600
C          2.89000        0.10600        4.80400
O          1.78400        0.05900        3.99400
C          4.13900        0.47500        3.99000
C          5.21600       -0.08900        4.89200
N          5.76200        1.07600        5.60700
C          6.34500        2.06800        4.91000
O          6.44900        2.04100        3.64500
N          6.83500        3.12400        5.59500
C          6.75300        3.20600        6.94100
N          7.27900        4.33900        7.66000
C          6.15100        2.18300        7.66500
C          5.65200        1.10500        6.95700
P          0.65100        1.17900        4.55100
O          0.71200        2.60500        3.63600
O          1.00900        1.55600        5.96700
O         -0.92000        0.53800        4.59800
C         -1.72800        1.38800        3.88600
C         -3.17800        1.02300        3.85500
O         -3.69800        0.99300        5.12500
C         -3.43300       -0.36400        3.34200
O         -4.80900       -0.47400        3.15000
C         -3.10200       -1.19200        4.59000
C         -3.56100       -0.26200        5.66300
N         -2.78600       -0.29000        6.87000
C         -2.35100        0.81300        7.50700
N         -1.64800        0.44700        8.61700
C         -1.64600       -0.90500        8.67100
C         -1.08300       -1.76300        9.58200
O         -0.43400       -1.32400       10.57700
N         -1.25100       -3.09700        9.37100
C         -1.94700       -3.53600        8.30300
N         -2.07600       -4.95000        8.15600
N         -2.50100       -2.67700        7.40500
C         -2.36800       -1.34700        7.56300
P         -5.21200       -0.99200        1.58700
O         -6.42300        0.02500        0.94800
O         -5.80500       -2.35400        1.68700
O         -3.84100       -0.88200        0.63900
C         -4.06600       -1.22900       -0.69000
C         -2.77900       -1.07700       -1.41600
O         -2.82600       -1.38900       -2.77300
C         -2.27600        0.36700       -1.35300
O         -3.23900        1.21600       -1.84800
C         -1.22500        0.19200       -2.47500
C         -2.19700       -0.39200       -3.47500
N         -1.68100       -0.69000       -4.74200
C         -0.50000       -1.32300       -4.92200
O          0.20000       -1.68100       -3.93700
N         -0.01600       -1.60200       -6.14500
C         -0.66700       -1.27200       -7.27900
O         -0.22700       -1.52600       -8.42700
C         -1.88000       -0.62300       -7.13300
C         -2.70600       -0.19900       -8.29700
C         -2.35400       -0.34900       -5.86700
P         -3.48900        2.60000       -0.91300
O         -5.05600        2.51400       -0.28300
O         -2.47600        2.71800        0.17400
O         -3.38500        3.91100       -2.01300
C         -2.07900        4.29500       -2.19800
C         -1.89300        5.31500       -3.30500
O         -2.31500        4.85200       -4.52500
C         -0.38800        5.55200       -3.44000
O          0.04200        6.48400       -2.51200
C         -0.35200        6.08700       -4.87400
C         -1.51400        5.36500       -5.50900
N         -2.18600        6.12600       -6.52400
C         -1.69200        7.11500       -7.28700
N         -2.66700        7.54600       -8.10700
C         -3.77200        6.84700       -7.87600
C         -5.03700        6.88700       -8.43100
N         -5.38100        7.81000       -9.47600
N         -5.95600        6.02400       -7.96400
C         -5.67300        5.14300       -6.98800
N         -4.45400        5.10400       -6.45200
C         -3.47200        5.93800       -6.86600
P          1.30000        5.91400       -1.54400
O          0.83000        5.91500        0.09400
O          2.53900        6.78100       -1.64300
O          1.72300        4.38000       -2.05700
C          1.89800        3.48600       -1.02100
C          2.35300        2.17200       -1.58800
O          3.55400        2.38500       -2.26300
C          2.79900        1.20600       -0.51200
O          2.88500       -0.08700       -1.02000
C          4.18300        1.69400       -0.13000
C          4.50600        2.63000       -1.28600
N          5.83300        2.32200       -1.82700
C          6.84100        2.33900       -0.92100
O          6.64100        2.60300        0.29900
N          8.10600        2.06700       -1.32400
C          8.36500        1.78100       -2.61200
N          9.69700        1.49800       -3.01900
C          7.31600        1.76800       -3.53100
C          6.02800        2.04300       -3.12700
P          1.93500       -1.13200       -0.12100
O          2.77000       -1.74400        1.00000
O          0.59600       -0.31600        0.51200
O          1.34300       -2.43900       -1.03400
C          0.62300       -3.22400       -0.13500
C          0.01300       -4.43800       -0.75200
O         -0.86100       -4.08500       -1.75200
C          1.10700       -5.23700       -1.43200
O          1.62000       -6.22400       -0.59500
C          0.33800       -5.91000       -2.55200
C         -1.03600       -5.31000       -2.41900
N         -1.65800       -5.11400       -3.71600
C         -1.02700       -4.68200       -4.81600
N         -1.88900       -4.60700       -5.86100
C         -3.08400       -4.99700       -5.41600
C         -4.29400       -5.10200       -6.07800
O         -4.39700       -4.80800       -7.29300
N         -5.34500       -5.53700       -5.33800
C         -5.19800       -5.84700       -4.02200
N         -6.38500       -6.29200       -3.36100
N         -4.01600       -5.74200       -3.38700
C         -2.94400       -5.31500       -4.07800
H          2.24900       -1.11500        8.40200
H          1.47700       -1.86500        6.17000
H          2.95000       -2.60800        6.90200
H          3.25800       -2.03600        4.62400
H          2.79700        0.83800        5.63300
H          4.18100       -0.09200        3.05200
H          4.16300        1.55900        3.87500
H          6.06300       -0.53600        4.33400
H          6.66200        5.13100        7.95200
H          8.29500        4.37500        7.89600
H          6.08100        2.24200        8.74800
H          5.17300        0.28300        7.48800
H         -1.32100        1.46000        2.83600
H         -1.59700        2.40300        4.30900
H         -3.70400        1.77600        3.23700
H         -2.82800       -0.63400        2.47200
H         -2.05700       -1.49900        4.63400
H         -3.72500       -2.10600        4.48900
H         -4.59700       -0.60400        5.95300
H         -2.52200        1.82800        7.20000
H         -1.75000       -5.46400        7.29900
H         -2.52200       -5.44700        8.97000
H         -3.03600       -3.04100        6.58700
H         -4.44500       -2.24500       -0.81400
H         -4.77100       -0.47400       -1.09600
H         -1.94700       -1.67400       -0.98400
H         -1.80900        0.63800       -0.41600
H         -0.54000       -0.55700       -2.02500
H         -0.77000        1.13100       -2.77500
H         -2.98000        0.41800       -3.58100
H          0.90800       -2.09700       -6.27800
H         -2.62300       -0.87800       -9.16200
H         -3.76700       -0.21900       -7.98300
H         -2.50100        0.87300       -8.55600
H         -3.31600        0.16700       -5.75100
H         -1.45000        3.40100       -2.38000
H         -1.70700        4.76600       -1.25000
H         -2.37500        6.25900       -3.04800
H          0.17100        4.61200       -3.38100
H         -0.44500        7.17600       -4.84300
H          0.62600        5.84300       -5.31700
H         -1.04900        4.48500       -6.04400
H         -0.67300        7.50600       -7.25200
H         -5.30200        7.54200      -10.48700
H         -5.72200        8.78200       -9.27300
H         -6.49000        4.48700       -6.68100
H          0.88200        3.33200       -0.57600
H          2.61800        3.88800       -0.31100
H          1.60400        1.67400       -2.20500
H          2.11700        1.23100        0.33700
H          4.16600        2.28100        0.82700
H          4.89900        0.86000       -0.06500
H          4.52600        3.69600       -0.98700
H         10.03400        0.52500       -2.86000
H         10.31700        2.22000       -3.45600
H          7.51600        1.53600       -4.58400
H          5.18000        2.04600       -3.80300
H         -0.12600       -2.53900        0.31900
H          1.30100       -3.48800        0.72300
H         -0.47100       -5.01400        0.06400
H          1.89300       -4.55800       -1.82300
H          0.89600       -6.55400       -0.03100
H          0.84500       -5.67100       -3.49800
H          0.31800       -7.01600       -2.42300
H         -1.65400       -5.95600       -1.75800
H          0.02000       -4.41900       -4.89900
H         -7.00200       -5.63600       -2.81400
H         -6.65700       -7.31300       -3.42100
H         -3.93300       -5.98700       -2.37800
