189
215d_DNA_conf47.pdb
O          7.66000        5.95700        1.72800
C          6.36800        6.34300        1.99600
C          5.96700        5.78700        3.34300
O          4.64400        6.17700        3.66500
C          5.82600        4.29000        3.36500
O          7.05800        3.70800        3.51500
C          4.96900        4.09800        4.63500
C          4.47700        5.48000        4.86600
N          3.19800        5.62900        5.46600
C          2.92000        6.84300        6.03400
O          3.77000        7.78300        6.02100
N          1.73800        7.08900        6.62700
C          0.75900        6.17500        6.70400
N         -0.49200        6.43300        7.32800
C          1.00300        4.93900        6.14100
C          2.23100        4.72100        5.54000
P          7.30600        2.40300        2.47100
O          8.01900        2.97300        1.05400
O          8.29700        1.49000        3.17000
O          5.88700        1.60800        2.09400
C          6.17900        0.46300        1.37500
C          4.91800       -0.33700        1.13900
O          4.32300       -0.72000        2.33700
C          5.16100       -1.57400        0.34500
O          3.95400       -1.98300       -0.21200
C          5.44600       -2.58100        1.45900
C          4.68100       -2.01000        2.62800
N          5.32400       -2.17600        3.89500
C          6.59900       -2.46500        4.19600
N          6.78400       -2.53100        5.52800
C          5.59300       -2.27600        6.08700
C          5.12800       -2.19800        7.39100
O          5.96800       -2.40100        8.30500
N          3.85100       -1.92100        7.69800
C          2.98300       -1.71000        6.68800
N          1.62500       -1.40800        6.93600
N          3.41900       -1.78200        5.41800
C          4.68400       -2.05500        5.07600
P          4.02600       -2.41100       -1.81900
O          4.34600       -1.13700       -2.85800
O          5.08800       -3.50400       -1.94100
O          2.52300       -3.14900       -2.18900
C          2.66500       -4.48600       -2.43900
C          1.32600       -5.22100       -2.61300
O          1.66400       -6.52900       -2.84700
C          0.48500       -4.68600       -3.70600
O         -0.78400       -4.34900       -3.23900
C          0.41900       -5.84000       -4.68800
C          1.15400       -6.95900       -4.03800
N          0.37000       -8.17500       -3.94100
C          0.80300       -9.37200       -4.37700
O          1.95200       -9.41100       -4.89200
N          0.07600      -10.50000       -4.28700
C         -1.14200      -10.40000       -3.72900
O         -1.83600      -11.43500       -3.63400
C         -1.61400       -9.18200       -3.27200
C         -2.97800       -9.06000       -2.64500
C         -0.84900       -8.05800       -3.37900
P         -1.29000       -2.85100       -3.81100
O         -1.95500       -3.00100       -5.38300
O         -0.14100       -1.86900       -3.98400
O         -2.50900       -2.24700       -2.81600
C         -3.54400       -1.83500       -3.59900
C         -4.51300       -0.86300       -3.07500
O         -5.43700       -0.64100       -4.13100
C         -5.43900       -1.27200       -1.99700
O         -4.93800       -1.70000       -0.82400
C         -6.25900       -2.33000       -2.75100
C         -6.39300       -1.61700       -4.05400
N         -6.49800       -2.48400       -5.19000
C         -6.43800       -2.02100       -6.47000
N         -6.57200       -3.08300       -7.31000
C         -6.70900       -4.16200       -6.55300
C         -6.88000       -5.49500       -6.88300
N         -6.93800       -5.92200       -8.25700
N         -6.99700       -6.40400       -5.86900
C         -6.94700       -6.00300       -4.56400
N         -6.78000       -4.70000       -4.23700
C         -6.66700       -3.82100       -5.22400
P         -5.56300       -0.74800        0.42300
O         -6.70400        0.31200       -0.22600
O         -6.27400       -1.57100        1.46300
O         -4.29100        0.13800        1.05000
C         -3.92900       -0.14100        2.33600
C         -2.56600        0.45600        2.59500
O         -1.68700       -0.13100        1.69000
C         -2.49200        1.94200        2.34900
O         -2.83300        2.66100        3.48700
C         -1.01400        2.09300        2.03300
C         -0.62200        0.72900        1.52900
N         -0.07800        0.73900        0.20800
C         -0.79800        0.80600       -0.92700
O         -2.03500        0.86000       -0.84900
N         -0.25400        0.81700       -2.15500
C          1.07000        0.76300       -2.35200
N          1.56500        0.77600       -3.66500
C          1.86100        0.69400       -1.21600
C          1.27500        0.68400        0.03200
P         -4.06100        3.76900        3.26500
O         -5.39300        3.04100        3.48900
O         -4.02800        5.00600        4.41700
O         -4.11900        4.46900        1.75100
C         -3.01800        5.28600        1.55500
C         -2.95300        5.79300        0.11100
O         -1.86900        6.58600       -0.14600
C         -2.96500        4.66600       -0.86700
O         -3.72500        5.02000       -1.99700
C         -1.51100        4.70000       -1.35100
C         -1.24100        6.18800       -1.30400
N          0.21100        6.32100       -1.11300
C          0.82000        6.80100       -0.00900
N          2.16100        6.78200       -0.16000
C          2.40300        6.28400       -1.37900
C          3.56300        6.03100       -2.08000
O          4.70000        6.26800       -1.60100
N          3.52800        5.51100       -3.32900
C          2.32300        5.22800       -3.91200
N          2.33700        4.68300       -5.22100
N          1.20100        5.48000       -3.21600
C          1.18600        5.99300       -1.97900
H          8.00100        6.56900        1.02100
H          6.36800        7.44400        2.09400
H          5.63400        6.10200        1.20800
H          6.66300        6.08000        4.13000
H          5.26100        3.88500        2.49200
H          5.68600        3.74300        5.41900
H          4.22700        3.31700        4.48900
H          5.22000        5.96800        5.56600
H         -0.54200        7.17400        8.04100
H         -1.32000        5.84400        7.02400
H          0.26000        4.14700        6.16400
H          2.38300        3.74500        5.10900
H          6.99900       -0.12000        1.79200
H          6.51700        0.81900        0.35700
H          4.21500        0.35100        0.62600
H          5.97900       -1.53500       -0.37100
H          6.52000       -2.64300        1.66100
H          5.10100       -3.59100        1.15300
H          3.72500       -2.60800        2.69000
H          7.39400       -2.62800        3.49500
H          1.09200       -1.77100        7.76900
H          1.11100       -0.80000        6.27200
H          2.74500       -1.61700        4.65100
H          3.28900       -4.66100       -3.35200
H          3.16100       -4.98100       -1.57700
H          0.78800       -5.13000       -1.64000
H          1.00000       -3.85300       -4.22200
H          0.84700       -5.55400       -5.67100
H         -0.62400       -6.16700       -4.87200
H          2.03800       -7.22300       -4.68700
H          0.49800      -11.36700       -4.65000
H         -3.44000       -8.12700       -3.02300
H         -3.58100       -9.95600       -2.80000
H         -2.77000       -8.87200       -1.55400
H         -1.22000       -7.12800       -3.02700
H         -4.04100       -2.75200       -3.99800
H         -3.08200       -1.37300       -4.52200
H         -4.02700        0.08700       -2.77500
H         -6.17900       -0.41900       -1.88900
H         -5.64000       -3.23000       -2.75000
H         -7.23700       -2.47200       -2.23400
H         -7.37900       -1.06700       -4.00700
H         -6.30700       -0.99500       -6.80700
H         -6.19300       -6.50700       -8.69300
H         -7.79200       -5.59100       -8.78000
H         -7.04400       -6.73500       -3.76400
H         -4.65200        0.42400        2.99400
H         -3.97900       -1.19500        2.62100
H         -2.30000        0.22600        3.65000
H         -3.15200        2.29600        1.54400
H         -0.77100        2.89100        1.33900
H         -0.52900        2.33100        3.00300
H          0.17200        0.34400        2.21300
H          2.07400       -0.08400       -4.00800
H          1.43300        1.62100       -4.29100
H          2.91500        0.65100       -1.34800
H          1.86600        0.63200        0.93700
H         -2.05000        4.82700        1.81100
H         -3.14700        6.18200        2.23500
H         -3.86400        6.43700       -0.04200
H         -3.27000        3.70100       -0.47000
H         -3.39300        5.85900       -2.38600
H         -0.84700        4.24100       -0.61900
H         -1.42700        4.26900       -2.36500
H         -1.56100        6.71300       -2.20600
H          0.30800        7.15400        0.88200
H          2.24400        3.64300       -5.41200
H          2.44800        5.30900       -6.07000
H          0.29600        5.25800       -3.68400
