189
215d_DNA_conf29.pdb
O          1.67500       -0.67000        5.08300
C          1.20200       -1.87900        5.53900
C          2.40100       -2.83000        5.56400
O          3.32600       -2.28200        6.41600
C          1.96100       -4.16300        6.09000
O          2.15700       -5.17300        5.17000
C          2.94000       -4.39900        7.24200
C          3.95400       -3.31400        7.11600
N          5.20800       -3.69400        6.54000
C          6.20700       -2.76400        6.58400
O          6.00400       -1.64500        7.10900
N          7.41700       -3.02700        6.07000
C          7.73700       -4.19700        5.48400
N          9.03600       -4.45000        4.94300
C          6.74400       -5.15200        5.42900
C          5.50200       -4.85300        5.96800
P          0.71000       -6.02100        4.84400
O          1.09200       -7.20900        3.71000
O          0.21400       -6.62800        6.11500
O         -0.35400       -4.89800        4.16500
C         -1.57800       -5.44800        3.81100
C         -2.43200       -4.35200        3.27800
O         -3.70500       -4.81500        2.89600
C         -1.96800       -3.77600        1.95900
O         -0.83300       -2.99300        2.05300
C         -3.20500       -2.90900        1.65500
C         -4.28500       -3.79800        2.17100
N         -5.22400       -3.11300        3.03600
C         -5.76400       -3.56100        4.18500
N         -6.59400       -2.63100        4.69700
C         -6.60600       -1.56200        3.88500
C         -7.24500       -0.35400        3.89800
O         -8.01900       -0.05800        4.81900
N         -7.04400        0.53700        2.91000
C         -6.20800        0.24000        1.89700
N         -6.01200        1.20300        0.85900
N         -5.58400       -0.95100        1.89300
C         -5.74000       -1.88100        2.84600
P          0.26300       -3.55000        0.88600
O          1.20200       -4.82600        1.49600
O         -0.55000       -4.10900       -0.26300
O          1.25500       -2.30200        0.33000
C          1.09200       -2.06800       -1.04300
C          1.98800       -0.90600       -1.40700
O          3.32600       -1.18200       -1.13500
C          2.01100       -0.60100       -2.88100
O          2.66900        0.60200       -3.06400
C          2.91800       -1.76500       -3.34700
C          3.87700       -1.83300       -2.20700
N          4.25000       -3.17400       -1.84800
C          4.70300       -3.52200       -0.63400
O          4.81400       -2.63800        0.26100
N          5.04200       -4.79500       -0.35000
C          4.95200       -5.79200       -1.24700
O          5.26800       -6.97100       -0.97600
C          4.48500       -5.45900       -2.51600
C          4.37900       -6.54400       -3.52300
C          4.14700       -4.14500       -2.77400
P          2.03000        1.61900       -4.20400
O          3.26800        2.45900       -5.04400
O          1.38700        0.73300       -5.28000
O          0.85500        2.67900       -3.69800
C          1.19900        4.01700       -3.91000
C          0.01000        4.80300       -4.25700
O          0.26300        6.16600       -4.50700
C         -1.06900        4.94000       -3.21600
O         -0.59700        5.73900       -2.18400
C         -2.02400        5.79200       -4.10500
C         -0.96800        6.79900       -4.59000
N         -1.05700        7.90800       -3.63400
C         -0.10100        8.37600       -2.82400
N         -0.62100        9.40300       -2.11500
C         -1.90200        9.57500       -2.48400
C         -2.87700       10.46700       -2.08200
N         -2.56200       11.43200       -1.08600
N         -4.09500       10.39100       -2.64800
C         -4.38700        9.47200       -3.59100
N         -3.42800        8.58900       -3.99100
C         -2.18700        8.61500       -3.46100
P         -1.00900        5.22000       -0.64600
O         -2.52100        4.47000       -0.59400
O         -1.09600        6.44100        0.24900
O          0.09500        4.16200        0.01400
C          0.88800        4.77600        1.01400
C          1.97400        3.76200        1.27700
O          2.89700        4.14700        2.24100
C          1.30900        2.52000        1.84700
O          0.63100        1.80000        0.90000
C          2.55500        1.82300        2.38800
C          3.46200        2.96500        2.71500
N          4.79900        2.77100        2.13200
C          5.41300        3.89200        1.71100
O          4.88000        5.03700        1.81900
N          6.65100        3.83400        1.14600
C          7.27100        2.63900        1.00500
N          8.56000        2.60000        0.40900
C          6.61800        1.49100        1.44700
C          5.35400        1.54900        2.02500
P         -0.95100        1.46700        1.30800
O         -1.55800        2.59200        2.15800
O         -1.03300        0.08900        2.30600
O         -1.97700        1.21900        0.03500
C         -1.44200        1.19900       -1.22000
C         -2.52800        0.99800       -2.29200
O         -1.98900        0.98700       -3.57700
C         -3.13500       -0.35500       -2.05200
O         -4.37800       -0.17800       -1.44700
C         -3.33000       -0.89700       -3.43100
C         -2.84300        0.18500       -4.32800
N         -2.26600       -0.37100       -5.51200
C         -2.20600       -1.62600       -5.96800
N         -1.55800       -1.68400       -7.15200
C         -1.18500       -0.43800       -7.47800
C         -0.50900        0.04400       -8.56500
O         -0.11400       -0.72200       -9.48900
N         -0.26000        1.34600       -8.65500
C         -0.68700        2.16200       -7.65700
N         -0.38100        3.54900       -7.82700
N         -1.35500        1.69500       -6.58200
C         -1.63000        0.38700       -6.44700
H          2.45200       -0.73800        4.48800
H          0.80600       -1.80300        6.59100
H          0.43100       -2.32700        4.90500
H          2.75900       -2.88400        4.50900
H          0.91100       -4.10200        6.44400
H          3.31500       -5.41800        7.29700
H          2.34300       -4.15800        8.17500
H          4.19900       -2.85700        8.12000
H          9.52700       -5.30600        5.26500
H          9.41300       -3.76900        4.26300
H          6.90700       -6.12200        4.97800
H          4.75700       -5.61600        5.90700
H         -2.04700       -5.79400        4.75500
H         -1.49600       -6.29300        3.10800
H         -2.53000       -3.53600        4.00700
H         -1.91300       -4.57900        1.21100
H         -3.02800       -1.98800        2.26100
H         -3.21200       -2.73300        0.56700
H         -4.82700       -4.21900        1.29400
H         -5.58800       -4.51900        4.66900
H         -5.35400        2.01800        1.04300
H         -6.49400        1.13000       -0.07000
H         -4.94500       -1.14200        1.09000
H          1.33000       -3.00600       -1.56800
H          0.04400       -1.83300       -1.27000
H          1.64600       -0.02300       -0.87400
H          1.04500       -0.65600       -3.38200
H          2.24100       -2.65800       -3.34800
H          3.35200       -1.57700       -4.33400
H          4.83400       -1.29900       -2.48100
H          5.39600       -5.07000        0.60200
H          3.48800       -7.15900       -3.21500
H          4.13300       -6.14300       -4.51600
H          5.26400       -7.20400       -3.51700
H          3.78700       -3.91900       -3.76700
H          1.80400        4.40400       -3.07600
H          1.87700        4.00500       -4.78800
H         -0.49200        4.33800       -5.14500
H         -1.56100        4.03100       -2.90100
H         -2.36800        5.15800       -4.92000
H         -2.80500        6.26300       -3.51800
H         -1.18000        7.12200       -5.60500
H          0.89700        8.02000       -2.73500
H         -1.94400       11.11400       -0.30200
H         -2.92900       12.42600       -1.12700
H         -5.38000        9.45100       -4.01600
H          1.32000        5.67000        0.54100
H          0.27300        5.00600        1.90700
H          2.46300        3.57600        0.32200
H          0.64100        2.81600        2.70700
H          2.24800        1.35400        3.32900
H          2.96200        1.14800        1.62100
H          3.61400        3.08700        3.80200
H          8.62200        2.99100       -0.56800
H          9.39100        2.21900        0.88400
H          7.10400        0.53100        1.34100
H          4.82600        0.67700        2.37700
H         -0.63600        0.46000       -1.34000
H         -0.99500        2.17800       -1.47700
H         -3.21700        1.83800       -2.19900
H         -2.45700       -0.97900       -1.43200
H         -4.73000       -1.09500       -1.30600
H         -4.40300       -1.11400       -3.61700
H         -2.74700       -1.85700       -3.56000
H         -3.72300        0.81000       -4.63600
H         -2.60900       -2.48900       -5.48400
H          0.54200        3.94100       -7.50100
H         -1.03900        4.22700       -8.27100
H         -1.66200        2.34300       -5.84700
