189
215d_DNA_conf34.pdb
O         -0.35400       -1.52900        6.79700
C          0.56100       -1.48300        5.77100
C          1.12700       -0.09800        5.53400
O          1.77800        0.40000        6.63800
C          0.07600        0.88700        5.14000
O          0.45400        1.71400        4.08300
C         -0.12100        1.71300        6.39400
C          0.94300        1.24100        7.33000
N          1.67300        2.40700        7.84500
C          3.02200        2.44000        7.84800
O          3.68300        1.47100        7.40900
N          3.64500        3.53900        8.33300
C          2.94100        4.58900        8.80800
N          3.55300        5.76000        9.32400
C          1.55300        4.54600        8.80200
C          0.91600        3.41900        8.30400
P         -0.75000        1.59700        2.90400
O         -1.29900       -0.01500        2.82500
O         -0.25200        1.94700        1.53000
O         -2.06800        2.58500        3.26500
C         -1.96000        3.74700        2.47800
C         -3.15700        4.60800        2.88800
O         -4.34100        3.95200        2.64800
C         -3.18800        5.83200        2.03000
O         -2.42100        5.60700        0.88800
C         -4.64900        6.01500        1.69200
C         -5.28100        5.01000        2.66900
N         -6.56800        4.56300        2.23300
C         -7.43200        5.08400        1.35600
N         -8.50500        4.30300        1.28900
C         -8.38000        3.25400        2.11400
C         -9.12200        2.16100        2.46500
O        -10.24900        1.98000        1.93800
N         -8.62600        1.29000        3.38000
C         -7.43400        1.43600        3.97000
N         -6.90000        0.53600        4.92700
N         -6.70600        2.51100        3.62400
C         -7.14000        3.42000        2.71800
P         -1.21600        6.80600        0.75300
O         -2.02600        8.28000        0.48000
O         -0.44800        6.90000        2.06800
O         -0.15400        6.52400       -0.50300
C          0.27800        5.21000       -0.46300
C          1.46500        5.00600       -1.41700
O          1.12000        5.30000       -2.69400
C          1.83400        3.55000       -1.32800
O          3.24600        3.42000       -1.30800
C          1.27200        2.98300       -2.59800
C          0.99600        4.17300       -3.44100
N          1.99500        4.20300       -4.51400
C          2.83700        5.27000       -4.63100
O          2.79100        6.24300       -3.85000
N          3.76100        5.29200       -5.62300
C          3.87900        4.28900       -6.50400
O          4.74200        4.31200       -7.42800
C          3.04800        3.19400       -6.42000
C          3.16500        2.08600       -7.38000
C          2.10700        3.19300       -5.39400
P          3.68400        2.71300        0.13700
O          5.11600        3.45700        0.71300
O          2.65100        2.97500        1.23200
O          3.98600        1.05200        0.03500
C          4.93400        0.76900        0.96700
C          5.45100       -0.57900        1.11200
O          6.06600       -1.16900        0.01200
C          4.50600       -1.67800        1.50700
O          3.64500       -1.97800        0.45300
C          5.56100       -2.80900        1.61800
C          6.58000       -2.33300        0.60000
N          6.70400       -3.40900       -0.36200
C          6.70700       -3.28600       -1.68500
N          6.84600       -4.54100       -2.18300
C          6.92800       -5.43700       -1.16400
C          7.07100       -6.80200       -1.06900
N          7.16200       -7.54400       -2.28600
N          7.11800       -7.39100        0.14100
C          7.03000       -6.69900        1.27200
N          6.89000       -5.36300        1.18500
C          6.83500       -4.70000       -0.00100
P          2.05900       -2.23700        1.01700
O          1.68000       -0.92600        2.00700
O          2.03100       -3.46800        1.93300
O          1.05800       -2.41900       -0.29700
C          0.57300       -3.68200       -0.50100
C         -0.47500       -3.74700       -1.56000
O         -0.98600       -5.05300       -1.76600
C          0.01000       -3.25300       -2.90200
O         -0.57400       -2.03900       -3.13700
C         -0.56700       -4.34800       -3.82000
C         -1.69500       -4.80700       -2.94400
N         -2.49800       -5.86800       -3.41900
C         -2.08800       -6.92900       -4.12600
O         -0.87700       -7.03600       -4.41200
N         -2.90700       -7.90800       -4.55700
C         -4.23500       -7.87400       -4.29100
N         -5.10100       -8.92300       -4.75700
C         -4.71100       -6.79800       -3.56300
C         -3.83600       -5.82200       -3.14400
P          0.41700       -0.80900       -3.66300
O          1.16200       -0.25800       -2.47000
O          1.55600       -1.29600       -4.79000
O         -0.51900        0.50200       -4.25900
C         -1.15800        0.01800       -5.41800
C         -2.32200        0.96800       -5.68100
O         -3.17200        0.96400       -4.58700
C         -3.21500        0.37100       -6.77800
O         -2.71000        0.72800       -8.01400
C         -4.53800        1.00800       -6.46800
C         -4.43300        1.28700       -4.99200
N         -5.42800        0.43900       -4.31200
C         -6.64000        0.06600       -4.74900
N         -7.22200       -0.71200       -3.82700
C         -6.37800       -0.83600       -2.79700
C         -6.44800       -1.50100       -1.60600
O         -7.46600       -2.17400       -1.29000
N         -5.44900       -1.49100       -0.68500
C         -4.34400       -0.77700       -0.99400
N         -3.29900       -0.76200       -0.04100
N         -4.26000       -0.11100       -2.17400
C         -5.23000       -0.10900       -3.08900
H         -1.02100       -2.21800        6.60100
H          0.08500       -1.87200        4.85200
H          1.39600       -2.17100        6.03600
H          1.85900       -0.19200        4.69900
H         -0.87200        0.34200        4.93900
H         -1.14200        1.55400        6.82100
H          0.06000        2.77600        6.14500
H          0.44500        0.71900        8.19000
H          3.14400        6.33800       10.09100
H          4.45800        6.07700        8.93200
H          0.93600        5.35800        9.16900
H         -0.16600        3.36800        8.29100
H         -1.00400        4.28400        2.63700
H         -2.05100        3.50800        1.40400
H         -3.08900        4.85100        3.97600
H         -2.80800        6.71600        2.60300
H         -4.77800        5.67400        0.65300
H         -5.02900        7.03000        1.88600
H         -5.29800        5.44700        3.67800
H         -7.26100        6.00300        0.80000
H         -6.50100        0.87400        5.82600
H         -6.92800       -0.49900        4.68100
H         -5.76500        2.63500        4.08400
H          0.51500        4.85900        0.55400
H         -0.55200        4.56700       -0.82000
H          2.33700        5.61200       -1.05900
H          1.40300        3.07100       -0.41500
H          0.30200        2.48500       -2.35600
H          1.97400        2.28000       -3.09700
H         -0.03600        4.16900       -3.88500
H          4.42400        6.09600       -5.74500
H          2.14500        1.79800       -7.73900
H          3.75300        2.43800       -8.25400
H          3.65300        1.17800       -6.96600
H          1.41600        2.34800       -5.27500
H          4.53500        1.11000        1.95800
H          5.80000        1.46300        0.78400
H          6.24900       -0.56200        1.91200
H          4.00700       -1.53800        2.46600
H          5.97600       -2.81100        2.65800
H          5.13100       -3.78300        1.40200
H          7.54400       -2.14500        1.08100
H          6.61500       -2.35100       -2.22000
H          6.67800       -8.47900       -2.37800
H          7.70900       -7.17400       -3.11000
H          7.07500       -7.22800        2.21800
H          1.43000       -4.32100       -0.85900
H          0.20700       -4.17700        0.41900
H         -1.40000       -3.17600       -1.24400
H          1.10600       -3.22500       -2.98600
H          0.24500       -5.10300       -3.86300
H         -0.84000       -3.97400       -4.80200
H         -2.30100       -3.87800       -2.70800
H         -6.03300       -8.62100       -5.16400
H         -4.82000       -9.93300       -4.69600
H         -5.77300       -6.77000       -3.34900
H         -4.26300       -4.99900       -2.57500
H         -1.49000       -1.02300       -5.32300
H         -0.45200        0.07000       -6.28300
H         -1.94600        1.95100       -5.96700
H         -3.25000       -0.73100       -6.63200
H         -2.38300        1.66400       -7.92400
H         -4.64600        1.97500       -6.98400
H         -5.33700        0.28400       -6.71200
H         -4.63900        2.34500       -4.74700
H         -7.10500        0.33800       -5.70200
H         -2.44100       -1.34500       -0.09800
H         -3.34800       -0.12900        0.80800
H         -3.39400        0.41100       -2.34300
