189
215d_DNA_conf2.pdb
O         -5.86300        2.71900        5.65100
C         -5.91900        1.66000        4.74600
C         -4.62200        0.86100        4.77600
O         -3.53300        1.66200        4.44100
C         -4.64100       -0.32700        3.91500
O         -5.53200       -0.35100        2.86200
C         -3.20000       -0.40300        3.43100
C         -2.81000        1.05700        3.44400
N         -1.37400        1.21300        3.54500
C         -0.65400        0.67900        2.51400
O         -1.23900        0.10700        1.53700
N          0.66700        0.72600        2.47700
C          1.34400        1.31200        3.47100
N          2.76300        1.31600        3.36800
C          0.64500        1.85500        4.51500
C         -0.75300        1.81400        4.57200
P         -6.03500       -1.90800        2.45800
O         -7.27000       -1.75400        1.31300
O         -6.59300       -2.68400        3.61800
O         -4.77700       -2.77000        1.72500
C         -5.21100       -3.46500        0.62300
C         -4.03200       -3.52200       -0.34600
O         -3.73600       -2.21700       -0.66100
C         -4.39100       -4.18900       -1.65500
O         -5.14300       -5.32400       -1.54000
C         -5.06800       -3.02900       -2.34500
C         -4.26900       -1.85500       -1.85900
N         -3.22300       -1.60500       -2.86200
C         -1.91100       -1.71900       -2.60400
N         -1.21300       -1.42700       -3.73300
C         -2.10800       -1.13200       -4.69300
C         -1.91500       -0.77000       -6.01400
O         -0.74700       -0.67500       -6.49400
N         -3.02300       -0.53100       -6.73800
C         -4.25500       -0.64000       -6.20300
N         -5.35900       -0.36400       -7.06000
N         -4.44800       -0.99500       -4.90600
C         -3.36900       -1.24300       -4.14600
P         -4.21700       -6.56600       -2.28100
O         -4.39700       -6.40600       -3.93900
O         -4.64400       -7.92100       -1.81800
O         -2.57600       -6.26100       -1.88900
C         -2.05000       -7.44700       -1.44500
C         -0.66400       -7.39800       -0.90900
O         -0.31000       -8.67700       -0.52100
C          0.38700       -6.90100       -1.84400
O          1.08500       -5.87100       -1.19000
C          1.27400       -8.11100       -2.03500
C          0.47900       -9.24100       -1.50700
N         -0.23100      -10.02900       -2.47000
C         -0.87900      -11.12800       -2.01400
O         -0.87000      -11.45900       -0.79200
N         -1.56800      -11.92700       -2.84600
C         -1.65800      -11.68400       -4.18000
O         -2.29800      -12.42600       -4.95500
C         -1.00800      -10.57700       -4.64900
C         -1.07700      -10.27500       -6.09200
C         -0.30600       -9.77000       -3.78100
P          1.14500       -4.46500       -2.09100
O          2.54000       -4.58600       -3.07800
O         -0.02800       -4.28800       -2.99400
O          1.35100       -3.07100       -1.17300
C          2.63000       -3.10500       -0.62900
C          2.92200       -1.81400        0.08200
O          4.22000       -1.83400        0.63900
C          3.01400       -0.63500       -0.85800
O          2.89100        0.58800       -0.18900
C          4.41800       -0.81500       -1.40500
C          5.11400       -1.70700       -0.39800
N          6.33900       -1.06700        0.08300
C          6.81400       -0.95000        1.32000
N          7.99500       -0.26700        1.27200
C          8.24400        0.03500       -0.01200
C          9.23400        0.69000       -0.71300
N         10.31400        1.21700        0.04900
N          9.20200        0.83900       -2.05800
C          8.17100        0.33800       -2.77700
N          7.19300       -0.30500       -2.11600
C          7.19300       -0.47000       -0.78600
P          1.65300        1.41800       -0.92800
O          2.04400        1.86600       -2.49600
O          0.45000        0.47200       -1.04700
O          1.06700        2.73700       -0.02100
C          0.82200        3.72300       -0.93100
C         -0.13900        4.77900       -0.60600
O         -1.42500        4.31700       -0.33300
C          0.17900        5.79900        0.41100
O          0.30700        5.37200        1.72100
C         -1.20800        6.51500        0.39200
C         -2.08900        5.29000        0.35600
N         -3.42300        5.54700       -0.13100
C         -3.75400        5.39900       -1.42800
O         -2.89800        5.02100       -2.29000
N         -4.99100        5.63600       -1.90700
C         -5.98100        6.04000       -1.08900
N         -7.28700        6.28800       -1.61800
C         -5.67500        6.20100        0.24600
C         -4.38400        5.95300        0.73100
P          1.31700        6.43100        2.57200
O          0.50000        7.23600        3.58800
O          2.11800        7.50400        1.50500
O          2.52600        5.65200        3.44700
C          2.85400        6.52800        4.49800
C          4.10000        5.99100        5.16400
O          5.08300        5.97200        4.18600
C          3.84100        4.58200        5.60000
O          4.29800        4.35900        6.91100
C          4.82100        3.81100        4.71300
C          5.87100        4.89400        4.49600
N          6.75400        4.53000        3.40500
C          7.91300        3.86100        3.52400
N          8.47500        3.69000        2.31800
C          7.64400        4.26800        1.43000
C          7.69100        4.40800        0.07400
O          8.65800        3.94100       -0.58100
N          6.72500        5.03500       -0.59100
C          5.68200        5.54400        0.07700
N          4.64500        6.21900       -0.62000
N          5.62300        5.41300        1.40800
C          6.57300        4.79100        2.10600
H         -5.52700        3.51100        5.16400
H         -6.75600        1.02000        5.10600
H         -6.20500        1.95600        3.72200
H         -4.46900        0.59100        5.84600
H         -4.78100       -1.26300        4.49100
H         -3.09100       -0.91600        2.48400
H         -2.57000       -0.91500        4.18500
H         -3.09200        1.48700        2.46100
H          3.18200        1.71900        2.47900
H          3.38500        0.94000        4.13000
H          1.20100        2.33300        5.32500
H         -1.32300        2.22700        5.36800
H         -5.59500       -4.48100        0.87700
H         -6.00700       -2.86800        0.13900
H         -3.21600       -4.09800        0.11700
H         -3.45600       -4.41900       -2.21300
H         -5.02900       -3.16200       -3.44900
H         -6.14400       -2.95200       -2.01000
H         -4.90200       -0.94100       -1.74100
H         -1.47200       -1.99900       -1.64200
H         -6.01400       -1.14900       -7.32000
H         -5.47000        0.61500       -7.39700
H         -5.40900       -1.07000       -4.50700
H         -2.75800       -7.80900       -0.64000
H         -2.17800       -8.19000       -2.26500
H         -0.70400       -6.79500        0.04500
H          0.02300       -6.48100       -2.77900
H          1.69300       -8.21100       -3.03700
H          2.16000       -7.96200       -1.35300
H          1.15400       -9.97100       -0.95300
H         -2.08000      -12.79000       -2.50200
H         -1.77900       -9.44300       -6.32700
H         -0.08900       -9.95900       -6.48200
H         -1.35200      -11.17900       -6.69500
H          0.18700       -8.91800       -4.18200
H          3.39800       -3.36000       -1.38500
H          2.70500       -3.91900        0.15300
H          2.22400       -1.59500        0.88900
H          2.25900       -0.76900       -1.65100
H          4.41700       -1.37200       -2.36200
H          4.88400        0.16700       -1.47200
H          5.41700       -2.69600       -0.83700
H          6.31200       -1.34600        2.19800
H         11.29000        1.25300       -0.32100
H         10.13500        1.59000        1.03000
H          8.11100        0.43600       -3.84800
H          0.49200        3.24500       -1.90400
H          1.83000        4.15600       -1.20400
H         -0.28300        5.37300       -1.57500
H          0.94700        6.55600        0.13800
H         -1.23400        7.07600       -0.55700
H         -1.32000        7.13400        1.28100
H         -2.17500        4.95600        1.42800
H         -7.88400        5.52600       -1.99900
H         -7.58900        7.30200       -1.58800
H         -6.44000        6.52700        0.94400
H         -4.17700        6.09100        1.78800
H          2.99700        7.56300        4.11800
H          2.05300        6.55200        5.26500
H          4.40500        6.62600        6.02900
H          2.80200        4.27100        5.44500
H          3.66700        3.70700        7.31500
H          5.20100        2.90000        5.16300
H          4.27500        3.58200        3.79800
H          6.37200        5.06100        5.45200
H          8.34100        3.50400        4.45900
H          4.27300        7.08600       -0.17100
H          4.24400        5.91000       -1.52600
H          4.78800        5.82600        1.88000
