189
215d_DNA_conf9.pdb
O         -5.35300       -0.52700        6.25600
C         -4.78600       -0.18400        5.04100
C         -4.74700        1.31100        4.91100
O         -3.99100        1.91000        5.93300
C         -4.09400        1.82300        3.67700
O         -2.84400        1.28500        3.42000
C         -3.83300        3.28600        4.06100
C         -4.05300        3.26400        5.54100
N         -2.99400        3.98400        6.18100
C         -2.78400        5.26300        5.77600
O         -3.49500        5.79000        4.87000
N         -1.80000        5.99600        6.34300
C         -1.01000        5.48800        7.31400
N          0.02400        6.28100        7.90100
C         -1.25200        4.19200        7.69900
C         -2.25000        3.41400        7.13800
P         -2.79100        0.86900        1.78400
O         -2.37400        2.26300        0.88200
O         -4.22300        0.55700        1.36000
O         -1.75400       -0.39100        1.43500
C         -0.43400        0.03600        1.15800
C          0.37000       -1.04900        0.54300
O          0.48800       -2.18900        1.34400
C          1.81500       -0.73300        0.28500
O          2.54500       -0.42300        1.43400
C          2.24900       -2.14500       -0.21000
C          1.43900       -2.98200        0.75800
N          2.35000       -3.59900        1.72300
C          2.41400       -3.44800        3.04800
N          3.43900       -4.24400        3.45200
C          3.99900       -4.87200        2.42100
C          5.03100       -5.76500        2.23000
O          5.69400       -6.17000        3.21800
N          5.36000       -6.23100        1.00100
C          4.67200       -5.82000       -0.07700
N          4.96100       -6.26600       -1.40000
N          3.65800       -4.94700        0.07900
C          3.31000       -4.46800        1.29400
P          3.72300        0.71200        1.13600
O          3.68700        1.18700       -0.50800
O          5.12100        0.17200        1.45900
O          3.58000        2.13500        2.02500
C          2.39900        2.79200        1.82500
C          2.44300        4.23200        2.31100
O          2.71500        4.24400        3.64100
C          1.03800        4.77200        2.11800
O          0.40100        4.14600        1.05200
C          0.41600        4.54000        3.44900
C          1.52400        4.12800        4.34300
N          1.47600        2.78100        4.84700
C          2.67300        2.21600        5.18700
O          3.74600        2.87700        5.04800
N          2.76300        0.96700        5.67100
C          1.68800        0.20200        5.85000
O          1.85200       -0.94900        6.30400
C          0.45800        0.73700        5.51700
C         -0.73700       -0.09400        5.70700
C          0.39800        2.04100        5.01500
P          0.25800        5.14900       -0.30600
O         -0.05300        6.72400        0.17500
O         -0.93700        4.65700       -1.08400
O          1.62100        5.00700       -1.29800
C          1.26900        4.29900       -2.44200
C          2.55900        3.82100       -3.07300
O          3.34200        4.89900       -3.38300
C          2.38100        3.09400       -4.36200
O          1.13500        2.48900       -4.51700
C          2.65200        4.13500       -5.39900
C          2.81300        5.39000       -4.56800
N          3.75100        6.30200       -5.22000
C          3.96200        6.48200       -6.53700
N          4.93000        7.42600       -6.66200
C          5.31200        7.82300       -5.45300
C          6.23000        8.73000       -4.93600
N          7.02600        9.48600       -5.84600
N          6.38900        8.91100       -3.60900
C          5.65700        8.21400       -2.72700
N          4.76500        7.33300       -3.20700
C          4.57100        7.11700       -4.53700
P          1.36500        0.82100       -4.73600
O          1.60000        0.03200       -3.25200
O          2.63300        0.61100       -5.54300
O          0.02900        0.14300       -5.47100
C         -0.83700       -0.50700       -4.59800
C         -1.96400       -1.09200       -5.41200
O         -1.52900       -1.99900       -6.35900
C         -2.99600       -1.78700       -4.54500
O         -2.37200       -2.30100       -3.42700
C         -3.33400       -2.95800       -5.45200
C         -1.91400       -3.26300       -5.92400
N         -1.91100       -4.24700       -6.94900
C         -0.71800       -4.62100       -7.47300
O          0.37200       -4.11100       -7.07100
N         -0.61200       -5.54800       -8.44500
C         -1.67600       -6.17900       -8.97600
N         -1.54800       -7.15900      -10.00500
C         -2.91800       -5.81700       -8.45800
C         -2.99900       -4.85600       -7.45400
P         -3.09400       -1.80700       -1.98900
O         -4.59000       -2.06500       -1.96700
O         -2.77300       -0.15000       -1.72800
O         -2.43500       -2.72900       -0.73200
C         -3.39600       -3.08800        0.17400
C         -2.86000       -3.81400        1.37800
O         -2.20100       -5.00300        1.07600
C         -3.98800       -4.33400        2.25800
O         -4.48300       -3.25600        2.98100
C         -3.21200       -5.29900        3.13800
C         -1.88400       -5.42900        2.38800
N         -1.49500       -6.80100        2.45900
C         -1.75800       -7.62000        3.52000
N         -1.27600       -8.83800        3.30200
C         -0.69100       -8.86300        2.11500
C         -0.04100       -9.82700        1.39200
O          0.07000      -10.98600        1.90000
N          0.45800       -9.53300        0.18100
C          0.31300       -8.28400       -0.31200
N          0.83300       -7.94200       -1.59400
N         -0.32300       -7.31100        0.37600
C         -0.83400       -7.58300        1.59600
H         -5.49400        0.28300        6.80300
H         -3.79900       -0.63600        4.87700
H         -5.42700       -0.54800        4.19000
H         -5.79200        1.72100        4.91600
H         -4.72500        1.78200        2.76000
H         -2.81900        3.61700        3.77800
H         -4.53800        3.94600        3.50900
H         -5.05100        3.70700        5.74600
H          0.23300        7.21100        7.48400
H          0.52600        5.87900        8.73100
H         -0.64500        3.72800        8.47900
H         -2.42700        2.38300        7.45800
H         -0.56200        0.83800        0.40400
H          0.04000        0.46400        2.04000
H         -0.06700       -1.37100       -0.43000
H          2.01400       -0.04000       -0.53200
H          1.92200       -2.25800       -1.26300
H          3.32300       -2.28200       -0.15700
H          1.01000       -3.82500        0.16700
H          1.77100       -2.81800        3.64300
H          4.89800       -7.27700       -1.68600
H          5.24900       -5.56200       -2.11300
H          3.12300       -4.63200       -0.77800
H          2.21500        2.81300        0.72200
H          1.60900        2.21900        2.34900
H          3.17500        4.82500        1.72600
H          1.17000        5.84000        1.86700
H         -0.45900        3.88200        3.40600
H          0.00300        5.52900        3.81800
H          1.57400        4.79300        5.25300
H          3.72300        0.59100        5.91600
H         -0.61600       -0.80900        6.56600
H         -0.91500       -0.74700        4.81100
H         -1.66700        0.46300        5.91700
H         -0.55800        2.42300        4.77400
H          0.71400        3.39700       -2.11300
H          0.65500        4.89000       -3.13700
H          3.04400        3.11800       -2.35400
H          3.16200        2.28400       -4.41900
H          3.62600        3.93600       -5.89300
H          1.87000        4.21700       -6.17900
H          1.86800        5.95500       -4.43000
H          3.44400        5.95800       -7.34200
H          8.03300        9.17000       -5.96800
H          6.67100       10.30900       -6.37800
H          5.74700        8.32300       -1.64900
H         -1.30700        0.32200       -3.99300
H         -0.37200       -1.21200       -3.91500
H         -2.51100       -0.28500       -5.93800
H         -3.86100       -1.14800       -4.31900
H         -3.87100       -2.58100       -6.34500
H         -3.79400       -3.78900       -4.93600
H         -1.27300       -3.49700       -5.04800
H         -1.59000       -6.91400      -11.02100
H         -1.40600       -8.16700       -9.77400
H         -3.82200       -6.27800       -8.83400
H         -3.95300       -4.56000       -7.03800
H         -4.16000       -3.71700       -0.33000
H         -3.84400       -2.14400        0.56900
H         -2.17000       -3.19800        1.96100
H         -4.75000       -4.80900        1.64400
H         -4.24000       -3.33600        3.93500
H         -3.70500       -6.28500        3.20300
H         -3.04300       -4.82200        4.10300
H         -1.11300       -4.75700        2.83900
H         -2.29300       -7.34300        4.44200
H          1.86100       -7.80700       -1.70400
H          0.14100       -7.83800       -2.37500
H         -0.41900       -6.36800       -0.02200
