189
215d_DNA_conf41.pdb
O         -2.17400       -2.18400       -7.65700
C         -2.37000       -2.18300       -6.28000
C         -1.14600       -1.56300       -5.59900
O         -1.02400       -0.28000       -6.07100
C          0.05500       -2.34600       -6.02500
O          0.92000       -2.50300       -4.94400
C          0.71800       -1.37400       -7.00800
C          0.30000       -0.04600       -6.41600
N          0.37500        1.00200       -7.41000
C         -0.72800        1.53900       -7.94600
O         -1.87400        1.13700       -7.58800
N         -0.60000        2.51400       -8.87200
C          0.59900        2.97600       -9.28600
N          0.74700        3.99700      -10.25400
C          1.75000        2.43700       -8.74700
C          1.58100        1.43600       -7.79800
P          1.27400       -4.15500       -4.84800
O         -0.12400       -5.09100       -4.76700
O          2.09900       -4.59600       -6.04400
O          2.21500       -4.42400       -3.48400
C          2.87600       -5.66600       -3.54400
C          3.84900       -5.73000       -2.40900
O          4.57900       -6.91200       -2.35100
C          3.17500       -5.60300       -1.06000
O          2.17300       -6.53700       -0.98600
C          4.29500       -6.08400       -0.16600
C          4.96100       -7.10700       -1.05200
N          4.56900       -8.46000       -0.64100
C          3.84100       -9.36500       -1.31400
N          3.74600      -10.46100       -0.54200
C          4.41400      -10.23100        0.60300
C          4.66700      -10.96400        1.75400
O          4.21900      -12.12100        1.87000
N          5.39100      -10.46300        2.77100
C          5.88900       -9.21800        2.68000
N          6.66300       -8.62500        3.71600
N          5.68000       -8.44300        1.58000
C          4.94900       -8.96000        0.56300
P          0.67500       -5.95400       -0.54700
O         -0.05900       -7.16500        0.41300
O         -0.17600       -5.78600       -1.75800
O          0.73000       -4.55400        0.39400
C         -0.42200       -4.57400        1.19300
C         -0.46400       -3.42000        2.17400
O         -1.61800       -3.52400        2.91900
C          0.64800       -3.52700        3.19500
O          1.79400       -4.04000        2.63200
C          0.05800       -4.45500        4.24300
C         -1.40300       -4.54100        3.84100
N         -2.27800       -4.36000        4.96400
C         -2.54300       -3.15600        5.51700
O         -1.96700       -2.16000        4.98100
N         -3.37000       -3.03300        6.57100
C         -3.97900       -4.09300        7.13700
O         -4.75300       -4.00300        8.12000
C         -3.73300       -5.34000        6.60000
C         -4.35500       -6.55100        7.15300
C         -2.88100       -5.45100        5.51700
P          3.09700       -2.98800        2.75600
O          3.80300       -3.15700        4.30400
O          4.13600       -3.25000        1.71500
O          2.51500       -1.40300        2.62800
C          3.52800       -0.47600        2.67300
C          3.05100        0.94000        2.82600
O          2.33000        1.01100        4.01800
C          2.03700        1.33800        1.79400
O          1.17200        0.29000        1.54000
C          1.33800        2.48200        2.51100
C          1.57500        2.17000        3.95000
N          0.30700        1.91200        4.61300
C         -0.25900        0.73900        4.94400
N         -1.45300        0.99000        5.54900
C         -1.59700        2.32700        5.57700
C         -2.58000        3.18800        6.05300
N         -3.71200        2.54800        6.65700
N         -2.47600        4.51800        5.95300
C         -1.38200        5.08000        5.37100
N         -0.41200        4.27900        4.90000
C         -0.50100        2.93900        4.99200
P          0.99900        0.04400       -0.13300
O         -0.56000       -0.54200       -0.39000
O          1.99500       -0.94200       -0.64200
O          1.11100        1.56000       -0.90300
C          1.67100        1.48300       -2.15300
C          1.96200        2.85500       -2.73900
O          2.84300        3.53800       -1.92100
C          0.74300        3.72900       -2.74000
O         -0.05000        3.57700       -3.88500
C          1.38000        5.11300       -2.81700
C          2.66600        4.89200       -2.09400
N          2.66500        5.56600       -0.82000
C          3.84300        5.98600       -0.31100
O          4.89800        5.77500       -0.96600
N          3.95000        6.62200        0.86700
C          2.85100        6.87900        1.62000
N          2.93000        7.54600        2.86400
C          1.64600        6.45600        1.11000
C          1.57000        5.81200       -0.08900
P         -1.65400        3.36300       -3.34100
O         -1.60200        2.59700       -2.05400
O         -2.46600        2.50000       -4.56700
O         -2.38900        4.85700       -3.14300
C         -3.49100        4.74700       -2.28900
C         -4.17000        6.08600       -2.15200
O         -5.27400        5.96300       -1.28800
C         -3.27400        7.10700       -1.48900
O         -2.81900        8.03500       -2.42700
C         -4.18400        7.85500       -0.52000
C         -5.53100        7.25700       -0.85400
N         -6.35100        7.21900        0.33300
C         -7.13800        8.25000        0.70700
N         -7.79400        7.95500        1.84500
C         -7.42300        6.70900        2.21300
C         -7.78800        5.93300        3.28700
O         -8.60000        6.37200        4.12100
N         -7.22100        4.70700        3.36500
C         -6.34700        4.29200        2.42800
N         -5.78300        2.98200        2.57100
N         -5.98500        5.05000        1.37200
C         -6.52500        6.27300        1.25700
H         -3.03800       -2.09000       -8.09400
H         -2.54500       -3.21100       -5.90900
H         -3.21300       -1.49500       -6.06700
H         -1.31700       -1.60700       -4.49900
H         -0.16000       -3.30800       -6.51200
H          1.80900       -1.52400       -7.04200
H          0.20900       -1.54400       -7.98700
H          0.95900        0.15000       -5.53800
H          1.04600        4.94100       -9.91200
H          0.57900        3.87200      -11.27400
H          2.72600        2.77900       -9.05000
H          2.46700        1.00300       -7.36700
H          2.08700       -6.44000       -3.45800
H          3.37100       -5.76100       -4.51200
H          4.57500       -4.90400       -2.48400
H          2.86600       -4.57100       -0.83400
H          3.92000       -6.52500        0.78000
H          4.99000       -5.23500        0.01600
H          6.05900       -7.00400       -0.89400
H          3.41200       -9.23200       -2.29700
H          6.19200       -8.48500        4.65000
H          7.67200       -8.33000        3.57500
H          6.07300       -7.48400        1.52800
H         -1.28400       -4.51400        0.50100
H         -0.47100       -5.55900        1.69400
H         -0.39400       -2.47200        1.63800
H          0.84900       -2.51600        3.59700
H          0.55700       -5.44100        4.24000
H          0.19100       -4.02600        5.24600
H         -1.63000       -5.52800        3.36400
H         -3.56500       -2.10600        6.98600
H         -3.65000       -7.10500        7.80600
H         -5.21600       -6.23000        7.76300
H         -4.71200       -7.21500        6.32200
H         -2.69800       -6.43500        5.10900
H          4.23300       -0.72500        3.49600
H          4.11200       -0.54700        1.72800
H          3.90700        1.66000        2.87200
H          2.51100        1.72200        0.86200
H          1.90600        3.41900        2.25200
H          0.30200        2.62000        2.20600
H          2.12200        2.99000        4.46500
H          0.20900       -0.21400        4.73900
H         -3.90100        2.74400        7.67200
H         -4.28200        1.92800        6.06800
H         -1.34500        6.16000        5.31500
H          2.59600        0.89300       -2.15600
H          0.93400        1.00100       -2.85700
H          2.32400        2.76600       -3.78500
H          0.11600        3.63300       -1.84800
H          1.58200        5.34400       -3.89400
H          0.76600        5.91200       -2.41000
H          3.51100        5.29000       -2.73400
H          2.98200        6.94300        3.71900
H          2.94000        8.56500        2.97700
H          0.76900        6.66700        1.71700
H          0.60500        5.50200       -0.43900
H         -4.22200        4.00900       -2.65700
H         -3.07300        4.45300       -1.28600
H         -4.52200        6.42400       -3.13700
H         -2.44800        6.60900       -0.98100
H         -3.15000        7.78800       -3.33700
H         -4.17700        8.94200       -0.69500
H         -3.88000        7.62400        0.51400
H         -6.03000        7.84200       -1.66200
H         -7.25900        9.20700        0.19100
H         -5.93000        2.42000        3.42400
H         -5.20200        2.55900        1.80400
H         -5.31300        4.70500        0.67100
