189
215d_DNA_conf28.pdb
O          4.63100       -3.71300       -4.76200
C          5.40000       -2.73600       -4.12600
C          4.67900       -2.20600       -2.90100
O          5.45200       -1.24700       -2.29100
C          3.34700       -1.60100       -3.25600
O          2.29200       -2.09700       -2.49800
C          3.58300       -0.13900       -2.90300
C          5.10800       -0.03200       -2.85900
N          5.47700        1.09800       -2.05000
C          6.53000        0.98500       -1.21300
O          7.20800       -0.07100       -1.10300
N          6.91500        2.03300       -0.43100
C          6.27200        3.21200       -0.45600
N          6.66900        4.31900        0.36200
C          5.19900        3.32300       -1.31100
C          4.79800        2.27300       -2.10900
P          1.04700       -2.68700       -3.46900
O          1.25900       -2.08500       -5.05400
O          1.16000       -4.19200       -3.57800
O         -0.48300       -2.23600       -2.93600
C         -0.74200       -2.63700       -1.63000
C         -2.10100       -2.19000       -1.17000
O         -3.11800       -2.73200       -1.99200
C         -2.51600       -2.72600        0.16300
O         -1.98400       -2.02800        1.24600
C         -4.01900       -2.40000        0.13700
C         -4.29700       -2.37000       -1.34200
N         -5.36800       -3.26600       -1.71800
C         -5.74100       -4.44100       -1.19500
N         -6.81100       -4.90500       -1.89300
C         -7.12300       -4.02200       -2.86400
C         -8.08000       -3.95600       -3.85000
O         -8.92100       -4.88100       -3.97600
N         -8.09400       -2.88600       -4.66900
C         -7.22700       -1.87900       -4.58100
N         -7.25200       -0.76300       -5.44400
N         -6.28000       -1.94100       -3.60900
C         -6.21500       -2.99300       -2.75300
P         -1.42000       -3.06900        2.42100
O         -1.35800       -2.24400        3.91200
O         -2.37400       -4.23600        2.64800
O          0.10300       -3.61700        2.02400
C          1.13400       -2.82200        2.53500
C          2.41800       -3.62100        2.42200
O          2.68700       -3.95100        1.10300
C          3.63600       -2.84200        2.80800
O          3.58800       -1.59900        2.20500
C          4.74900       -3.67800        2.14100
C          4.00500       -4.36700        1.05100
N          4.04400       -5.79700        1.11200
C          4.01800       -6.53700       -0.02300
O          3.95700       -5.91300       -1.13300
N          4.05500       -7.89600        0.01000
C          4.11800       -8.57500        1.16300
O          4.15400       -9.82100        1.25300
C          4.14600       -7.85500        2.33400
C          4.21400       -8.55500        3.66500
C          4.10900       -6.47700        2.28900
P          4.06700       -0.37700        3.25800
O          4.92600       -1.03700        4.56100
O          4.98300        0.54000        2.47900
O          2.72000        0.41200        3.84600
C          2.71200        1.76800        3.52800
C          1.57700        2.49600        4.16700
O          1.53800        2.48600        5.53000
C          0.23200        1.89600        3.77700
O          0.36900        1.33900        2.50200
C          0.00700        0.88000        4.84900
C          0.82000        1.40800        5.98700
N          1.77200        0.46100        6.53300
C          2.99900        0.77400        7.04400
N          3.61800       -0.34600        7.45900
C          2.78200       -1.36900        7.21000
C          2.96700       -2.71300        7.45800
N          4.18600       -3.16700        8.05100
N          1.96800       -3.53900        7.11300
C          0.83300       -3.04900        6.54500
N          0.65900       -1.73500        6.30500
C          1.63500       -0.88600        6.63700
P         -0.54200        2.19600        1.36400
O         -2.04900        1.47300        1.21500
O         -0.67100        3.65700        1.79200
O          0.20400        2.20300       -0.14700
C         -0.78300        2.08100       -1.11900
C         -0.22200        2.13300       -2.51400
O         -1.26600        1.99800       -3.41600
C          0.44600        3.45700       -2.84000
O         -0.42500        4.44700       -2.46000
C          0.34500        3.38200       -4.37600
C         -1.06000        2.83800       -4.48500
N         -1.36100        2.26200       -5.76900
C         -2.64700        1.83600       -5.94400
O         -3.49500        1.95600       -5.01400
N         -3.02800        1.28800       -7.09400
C         -2.15600        1.14800       -8.09400
N         -2.65200        0.54700       -9.29900
C         -0.84100        1.56300       -7.97000
C         -0.46100        2.13300       -6.76100
P          0.22000        5.63500       -1.47900
O          1.49200        5.07400       -0.87100
O          0.48500        7.07200       -2.31400
O         -0.88800        5.98100       -0.21800
C         -2.18800        5.89900       -0.74700
C         -3.14300        5.87100        0.40600
O         -4.49100        5.78400       -0.01500
C         -3.18900        7.16400        1.17400
O         -2.11600        7.30300        2.04800
C         -4.52100        7.02200        1.92200
C         -5.11000        5.79900        1.24300
N         -6.55000        5.83600        1.15200
C         -7.33500        6.71000        0.50400
N         -8.63000        6.35100        0.69300
C         -8.68400        5.25700        1.45500
C         -9.66400        4.43900        1.98000
O        -10.86600        4.69600        1.74200
N         -9.39000        3.36600        2.74200
C         -8.09900        3.08000        3.00400
N         -7.70500        1.96600        3.80200
N         -7.09300        3.84900        2.51400
C         -7.37800        4.93200        1.74500
H          3.88800       -3.32500       -5.29700
H          5.60900       -1.94000       -4.86600
H          6.34900       -3.22000       -3.83600
H          4.57000       -3.06100       -2.20200
H          3.14800       -1.68800       -4.34700
H          3.16400        0.13000       -1.92100
H          3.17600        0.51500       -3.69100
H          5.51100        0.10000       -3.90200
H          6.44000        5.26900       -0.00300
H          7.16100        4.18900        1.27300
H          4.64300        4.25100       -1.37300
H          3.97000        2.30600       -2.79200
H          0.02100       -2.14000       -1.00400
H         -0.62600       -3.72700       -1.48100
H         -2.22900       -1.09800       -1.25200
H         -2.36000       -3.80200        0.22900
H         -4.53300       -3.19400        0.68700
H         -4.23400       -1.42800        0.61000
H         -4.54900       -1.32100       -1.64000
H         -5.24000       -4.90200       -0.35700
H         -6.44600       -0.15400       -5.63800
H         -8.15300       -0.53700       -5.92300
H         -5.58600       -1.14600       -3.53000
H          1.27700       -1.88700        1.98100
H          0.91600       -2.61800        3.60000
H          2.25600       -4.51600        3.06100
H          3.82700       -2.78100        3.90000
H          5.27100       -4.31500        2.85700
H          5.53600       -2.97700        1.74000
H          4.42000       -4.00800        0.07500
H          4.03600       -8.45000       -0.86800
H          4.85900       -9.43700        3.64700
H          3.14100       -8.85500        3.85700
H          4.43200       -7.82100        4.45900
H          4.13500       -5.96000        3.22800
H          2.60700        1.88200        2.41900
H          3.68800        2.18600        3.78000
H          1.64700        3.56000        3.84700
H         -0.47700        2.72900        3.79200
H          0.29400       -0.14800        4.54500
H         -1.08000        0.84900        5.08000
H          0.11100        1.72600        6.79200
H          3.35900        1.80100        7.07800
H          4.55400       -4.13200        7.90900
H          4.73300       -2.51200        8.64800
H          0.04700       -3.74200        6.28000
H         -1.32600        1.10800       -1.04300
H         -1.56000        2.86000       -1.03200
H          0.47200        1.28600       -2.70600
H          1.47200        3.54100       -2.48800
H          0.50500        4.34700       -4.85100
H          1.08900        2.60200       -4.67000
H         -1.73200        3.73000       -4.34800
H         -3.53500        0.97900       -9.67200
H         -2.18000       -0.24700       -9.76500
H         -0.15400        1.44200       -8.78400
H          0.54800        2.46600       -6.62600
H         -2.32500        6.88800       -1.27800
H         -2.32000        5.08800       -1.46200
H         -2.99200        5.00600        1.07700
H         -3.29000        7.99000        0.47100
H         -1.53400        6.50200        2.07500
H         -4.38200        6.80000        2.99300
H         -5.18500        7.89500        1.75300
H         -4.77000        4.88600        1.78100
H         -6.96900        7.55200       -0.06800
H         -6.91800        2.03700        4.48100
H         -8.20100        1.02800        3.73200
H         -6.08300        3.60300        2.73500
