61
6ln3_ATP_conf24.pdb
P          4.18000        2.53600        0.32700
O          3.18600        3.73300        1.02500
O          4.91600        1.45800        1.36600
O          5.28200        3.26600       -0.71500
P          3.66500        0.26800       -1.21900
O          4.70100        0.27300       -2.54400
O          2.42900        1.33600       -1.63200
O          4.76100        1.47100       -0.84100
P          2.66900       -2.05500       -0.06700
O          1.74800       -2.39000       -1.47000
O          4.18400       -2.71900       -0.38300
O          2.28000       -0.65200       -0.91300
O          1.03400       -2.15300        0.35400
C          0.73600       -3.29000        1.06200
C         -0.74000       -3.37900        1.46500
O         -1.01500       -2.29300        2.24300
C         -1.63900       -3.41900        0.28200
O         -2.61000       -4.41300        0.45900
C         -2.33800       -2.09400        0.31000
O         -3.74100       -2.26500        0.29500
C         -1.88700       -1.47400        1.59200
N         -1.41400       -0.12200        1.42700
C         -0.92900        0.45400        2.67100
N         -0.72700        1.83900        2.28500
C         -1.63600        2.09100        1.15100
C         -0.80100        2.04400       -0.12400
N         -0.31500        3.38800       -0.45900
N         -1.58800        1.63600       -1.26500
C         -3.00100        1.59900       -0.97100
N         -3.20600        0.54600        0.00500
C         -2.48000        0.83500        1.18200
H          5.23300        2.91700        1.20000
H          2.38200        3.77700        0.46300
H          4.27300        0.71800        1.55200
H          5.11000        4.22300       -0.84500
H          5.03900        0.28500       -0.87000
H          4.25900        0.12900       -3.40900
H          2.69700        1.95000       -2.38600
H          1.60700       -1.27500       -0.49800
H          2.10000       -3.18800       -1.95900
H          4.00700       -3.50400       -0.98200
H          0.96900       -4.24500        0.53400
H          1.31000       -3.32500        2.03100
H         -0.84900       -4.35200        2.01800
H         -1.10400       -3.60100       -0.67600
H         -3.24100       -4.30500       -0.30200
H         -2.10200       -1.47000       -0.58200
H         -4.00300       -2.41400       -0.65200
H         -2.80400       -1.36900        2.24700
H         -0.00900       -0.02800        3.04900
H         -1.74300        0.37500        3.42400
H         -0.95700        2.44200        3.09200
H         -2.18700        3.01900        1.28500
H          0.05600        1.37000        0.08000
H         -0.10000        3.40800       -1.48100
H         -1.10900        4.04700       -0.28600
H         -1.24400        0.76600       -1.69500
H         -3.29400        2.56300       -0.50500
H         -3.56100        1.34500       -1.86900
H         -4.22000        0.42900        0.24300
H         -3.11400        0.80400        2.09900
