61
6ln3_ATP_conf9.pdb
P         -1.03100        5.43600        1.71800
O          0.18100        4.61200        0.84500
O         -0.71100        7.10200        1.55500
O         -2.10600        5.49700        0.39200
P         -1.58800        3.60700        3.68600
O         -3.12900        4.08500        3.16900
O         -0.95900        4.75300        4.74700
O         -0.40600        4.13400        2.60200
P         -2.05500        0.87300        3.82300
O         -0.82500        0.67600        4.95800
O         -3.47200        1.28500        4.66500
O         -0.97600        2.12300        4.22200
O         -1.53900        0.08800        2.45400
C         -2.54000       -0.54400        1.75100
C         -1.95600       -1.08200        0.49300
O         -0.92400       -2.00300        0.67800
C         -2.92600       -1.97600       -0.28500
O         -3.97900       -1.27300       -0.80500
C         -1.94900       -2.48200       -1.35800
O         -2.08500       -1.55100       -2.41300
C         -0.65600       -2.38200       -0.66100
N          0.25500       -3.40500       -0.66200
C          0.09000       -4.67700       -0.19300
N          1.21600       -5.41100       -0.75900
C          2.26300       -4.45400       -0.96200
C          3.03500       -4.61800       -2.23400
N          4.16100       -3.67900       -2.16400
N          2.25100       -4.35400       -3.42100
C          1.49900       -3.13200       -3.35500
N          1.68900       -2.36800       -2.16800
C          1.62200       -3.10300       -0.95000
H         -2.10800        6.32700        1.85000
H          0.41300        5.18300        0.05400
H          0.16400        7.17500        1.08000
H         -2.24000        4.61300        0.00900
H         -2.17700        3.19700        2.47500
H         -3.50400        4.63000        3.91400
H         -1.36800        5.62800        4.45300
H         -2.87200       -0.19200        4.21300
H         -0.69500       -0.26400        5.25700
H         -3.90900        2.07300        4.22600
H         -3.38400        0.10600        1.48000
H         -2.88500       -1.40000        2.38600
H         -1.69200       -0.27200       -0.21200
H         -3.18400       -2.83600        0.33800
H         -4.82600       -1.67700       -0.43500
H         -2.23100       -3.45200       -1.77000
H         -2.44400       -0.68600       -2.10300
H         -0.14300       -1.46100       -1.07300
H          0.22300       -4.75500        0.91300
H         -0.81000       -5.24900       -0.45500
H          0.96300       -5.97800       -1.58700
H          2.98100       -4.55400       -0.12300
H          3.48000       -5.62400       -2.33300
H          5.07500       -4.16100       -2.08100
H          4.18600       -3.06500       -3.01900
H          2.89300       -4.36800       -4.24300
H          1.74400       -2.46300       -4.21800
H          0.41400       -3.40300       -3.46200
H          2.37000       -1.59700       -2.21000
H          2.03900       -2.50400       -0.11400
