61
6ln3_ATP_conf23.pdb
P          3.81200        1.86000       -0.68300
O          4.29100        0.56700        0.28800
O          2.60300        2.69200        0.18900
O          4.59400        3.26800       -0.20000
P          3.91000        0.61400       -3.08700
O          5.02700       -0.65400       -3.13900
O          4.73800        2.04100       -3.46800
O          4.16900        0.40700       -1.43000
P          1.53900       -0.43200       -4.03800
O          1.40400       -1.64400       -5.20700
O          1.68500        0.98400       -4.96100
O          3.19200       -0.76400       -3.75300
O         -0.04500       -0.07500       -3.56800
C         -0.44000       -0.70300       -2.41100
C         -1.88500       -0.33100       -2.05000
O         -2.19700       -0.99400       -0.89300
C         -1.86300        1.15300       -1.72800
O         -3.07100        1.76400       -1.96700
C         -1.54900        1.06500       -0.22600
O         -1.98100        2.25200        0.36300
C         -2.37400       -0.11000        0.13800
N         -2.08900       -0.74300        1.36200
C         -2.95000       -1.88300        1.63000
N         -2.93700       -2.08200        3.08300
C         -1.92900       -1.12800        3.57200
C         -0.58200       -1.76700        3.28700
N          0.15100       -2.06200        4.48100
N          0.21900       -0.87000        2.43900
C          0.12500        0.44500        3.04300
N         -1.16000        0.98900        2.76100
C         -2.18900        0.00300        2.56400
H          2.77200        2.55600       -1.31800
H          3.88100        0.71100        1.19100
H          2.59800        2.31900        1.12200
H          5.12200        3.05000        0.60600
H          3.25300        1.78100       -3.54000
H          5.83300       -0.28900       -3.59200
H          5.67000        1.78100       -3.72000
H          1.39400       -1.78400       -3.76000
H          1.17600       -1.28100       -6.12000
H          1.01800        0.86700       -5.69700
H          0.20800       -0.33000       -1.59200
H         -0.38400       -1.81700       -2.47500
H         -2.58900       -0.60800       -2.83600
H         -1.00800        1.64400       -2.24400
H         -2.96600        2.61900       -2.49400
H         -0.47000        0.95200       -0.15700
H         -1.21800        2.89000        0.30200
H         -3.44900        0.23100        0.09400
H         -2.65800       -2.78400        1.07700
H         -4.01400       -1.60500        1.38600
H         -3.85100       -1.92900        3.52700
H         -2.08100       -0.82700        4.60500
H         -0.66200       -2.70900        2.70100
H          1.14300       -2.25100        4.22200
H          0.11600       -1.33800        5.20700
H          1.21300       -1.22000        2.45900
H          0.29300        0.40000        4.14700
H          0.89300        1.11300        2.56100
H         -1.49000        1.71600        3.43000
H         -3.20100        0.37700        2.77200
