61
6ln3_ATP_conf29.pdb
P          0.27600       -0.25000       -4.30500
O          1.65800       -1.13300       -3.98800
O          0.37100        0.50400       -5.78900
O          1.49900        0.80300       -3.79800
P         -2.01100       -1.43200       -3.26800
O         -0.96900       -2.72800       -3.00400
O         -3.40200       -2.16300       -3.87500
O         -1.33000       -0.69100       -4.63100
P         -3.11100        0.14100       -1.24100
O         -3.82200       -0.69400        0.03500
O         -4.08600        1.43100       -1.68700
O         -3.25700       -0.38500       -2.83400
O         -1.99400        0.22000        0.02400
C         -1.69100        1.56900        0.19000
C         -0.69100        1.78900        1.30200
O         -1.14300        1.33700        2.51700
C          0.56000        0.97900        1.07400
O          1.44000        1.62300        0.20900
C          1.12700        0.87000        2.47300
O          2.15900        1.80100        2.60100
C         -0.05600        1.21500        3.34000
N         -0.23700        0.32300        4.44000
C          0.89300        0.31100        5.30400
N          1.57800       -0.92600        4.98800
C          0.48700       -1.84900        4.64100
C          1.01500       -2.87700        3.72600
N          2.44300       -2.75000        3.49000
N          0.39800       -2.94900        2.42600
C         -1.00100       -2.66600        2.54500
N         -1.09100       -1.23800        2.82200
C         -0.63100       -1.00900        4.15200
H          0.92000       -0.79000       -5.43700
H          1.41800       -1.78800       -3.28300
H         -0.16400        1.35400       -5.75600
H          1.07700        1.60300       -3.43200
H         -2.80800       -0.88400       -4.29000
H         -1.53400       -3.49300       -2.74600
H         -3.53100       -3.09600       -3.51800
H         -4.43400       -0.01100       -1.64100
H         -3.71600       -1.67600       -0.01900
H         -3.57100        2.24400       -1.93000
H         -2.60300        2.14100        0.44600
H         -1.26800        2.03100       -0.72600
H         -0.44600        2.87000        1.31200
H          0.32600       -0.04300        0.72400
H          1.22200        1.37100       -0.71800
H          1.53300       -0.13500        2.66400
H          2.13600        2.51700        1.92300
H          0.14800        2.21500        3.78100
H          0.58200        0.22300        6.36800
H          1.55200        1.19200        5.21600
H          2.15800       -1.30500        5.75000
H          0.24700       -2.32800        5.63200
H          0.88700       -3.91300        4.16100
H          2.61100       -2.27700        2.58100
H          2.90900       -3.68100        3.40600
H          0.55400       -3.89000        2.01600
H         -1.52700       -2.90300        1.57500
H         -1.53400       -3.18800        3.33800
H         -2.10700       -1.00900        2.72900
H         -1.52800       -1.20600        4.81200
