61
6ln3_ATP_conf22.pdb
P          0.88900       -0.20300       -5.29200
O          0.86900        0.79800       -6.66500
O          2.22400        0.21000       -4.34800
O          0.06200       -1.62700       -5.72000
P         -0.62100        1.91400       -4.30600
O         -1.52200        1.43300       -5.66700
O         -0.48300        3.41000       -5.12000
O          0.79400        1.46600       -5.13200
P         -2.15800        0.99400       -2.23700
O         -1.25100       -0.31500       -2.80400
O         -3.71600        0.83200       -2.85600
O         -1.36700        2.35600       -2.87600
O         -2.51000        1.19400       -0.62000
C         -1.48100        1.78200        0.11700
C         -1.90600        1.91600        1.56700
O         -2.19800        0.71200        2.14900
C         -0.74000        2.50600        2.33200
O         -0.80100        3.90000        2.37700
C         -0.93100        1.91300        3.69000
O         -1.72900        2.80700        4.43300
C         -1.66600        0.63800        3.40700
N         -0.93400       -0.55800        3.69400
C         -1.70700       -1.74200        3.39600
N         -0.93800       -2.53300        2.43500
C         -0.17900       -1.50200        1.75800
C          1.03600       -1.98100        1.04300
N          1.21400       -3.40200        0.99900
N          2.18600       -1.26900        1.59300
C          2.42800       -1.61400        2.97500
N          1.16100       -1.65500        3.70700
C          0.28900       -0.72700        2.99600
H          2.17100       -0.46100       -5.77200
H          0.50300        0.26000       -7.43600
H          2.01700        0.02900       -3.39800
H         -0.63400       -1.78500       -5.04400
H          0.25000        1.46700       -3.31600
H         -1.90200        0.54500       -5.55000
H          0.25200        3.92400       -4.68400
H         -3.29400        1.52100       -1.61700
H         -1.43700       -1.05800       -2.17400
H         -3.76900        0.10500       -3.54400
H         -1.30600        2.78500       -0.29700
H         -0.57200        1.19500       -0.00900
H         -2.76600        2.64200        1.55000
H          0.21400        2.26200        1.83800
H         -0.41300        4.21700        3.25200
H         -0.01400        1.78600        4.27100
H         -2.56100        3.04200        3.96700
H         -2.55100        0.61400        4.11000
H         -2.72800       -1.55900        3.06000
H         -1.75700       -2.38500        4.31700
H         -1.54700       -3.09200        1.81900
H         -0.88600       -0.94300        1.14500
H          0.95600       -1.59200       -0.01200
H          0.99900       -3.76600        0.04200
H          2.24000       -3.57700        1.14100
H          3.04300       -1.37800        1.03700
H          2.99500       -0.78200        3.44700
H          3.03300       -2.51800        3.11300
H          0.76800       -2.60500        3.65200
H          0.87600        0.14400        2.75500
