61
6ln3_ATP_conf48.pdb
P         -0.28400       -1.60000       -6.39300
O         -1.11500       -0.93300       -7.68800
O         -0.59900       -3.23700       -6.19900
O          0.59200       -0.93300       -7.66400
P          0.40500        0.62800       -4.88700
O         -0.77800        1.77300       -5.31700
O          1.92400        1.09200       -5.45300
O         -0.85700       -0.19400       -5.62600
P         -0.75800        0.26100       -2.47900
O          0.46500       -0.80500       -1.99900
O         -2.32900       -0.12800       -2.95100
O         -0.99200        0.91200       -4.02000
O         -0.53300        0.98800       -0.99500
C         -1.54000        1.87300       -0.64100
C         -1.24100        2.47400        0.72400
O         -1.17600        1.44700        1.62600
C          0.04300        3.23500        0.73800
O         -0.16900        4.62800        0.68300
C          0.64200        2.83700        2.06400
O          0.22000        3.69900        3.04800
C          0.01400        1.48800        2.31300
N          0.86000        0.41900        1.81400
C          2.16200        0.37900        2.41900
N          2.52300       -1.01500        2.54800
C          1.41000       -1.79500        2.05400
C          1.11700       -2.95300        3.01500
N         -0.21300       -3.46700        2.86300
N          1.24200       -2.36900        4.33000
C          0.37600       -1.26500        4.56300
N         -0.33700       -0.75100        3.45000
C          0.25900       -0.85200        2.16900
H         -0.21600       -2.16200       -5.09700
H         -2.07500       -1.18800       -7.64800
H         -1.41700       -3.53400       -6.69700
H          1.40900       -1.44800       -7.83100
H          1.41000        0.65700       -3.91500
H         -0.38500        2.34600       -6.04700
H          1.78400        1.98100       -5.90900
H         -0.78500       -0.46600       -1.28900
H          1.00600       -1.01800       -2.82400
H         -2.92600        0.18500       -2.22100
H         -1.75500        2.61900       -1.41600
H         -2.46000        1.25000       -0.50300
H         -2.04700        3.15500        1.05200
H          0.72200        3.00700       -0.10600
H          0.73300        5.02300        0.64900
H          1.73600        2.71300        2.00500
H          0.54100        4.61200        2.93900
H         -0.17700        1.32600        3.37700
H          2.87400        0.93000        1.75700
H          2.08800        0.83600        3.42400
H          3.42300       -1.26000        2.11300
H          1.55300       -2.20400        1.05000
H          1.91700       -3.68900        2.86600
H         -0.82800       -3.33400        3.70400
H         -0.67500       -3.24600        1.96900
H          2.24500       -2.07400        4.42000
H          0.90900       -0.44000        5.08000
H         -0.39600       -1.62300        5.30600
H         -1.36600       -0.87100        3.48300
H         -0.53900       -1.11400        1.42700
