61
6ln3_ATP_conf16.pdb
P         -4.90900        2.17400       -0.42500
O         -5.80400        3.51000       -0.95300
O         -5.78700        1.50200        0.85300
O         -3.56600        2.86300        0.30100
P         -4.02500        1.46000       -2.96200
O         -4.92700        2.60900       -3.80400
O         -3.74200       -0.02000       -3.73900
O         -3.55600        2.08600       -1.45900
P         -1.61100        2.46200       -3.68300
O         -0.75300        3.84600       -4.08400
O         -1.73900        2.68600       -5.35500
O         -2.77100        2.50100       -2.44700
O         -1.09000        1.16400       -2.74400
C          0.15600        1.43000       -2.15400
C          0.56400        0.22700       -1.32800
O          1.77800        0.43500       -0.72700
C         -0.37000        0.14100       -0.13800
O         -1.35100       -0.79500       -0.46600
C          0.52400       -0.30500        1.00200
O         -0.00700       -1.54200        1.43500
C          1.86100       -0.42300        0.37400
N          2.98200       -0.03700        1.11800
C          4.17500       -0.23400        0.31800
N          5.02500       -1.13700        1.02100
C          4.52700       -1.23600        2.37100
C          4.47900       -2.69400        2.74600
N          3.75300       -3.51100        1.83100
N          3.82200       -2.70700        4.05800
C          2.43500       -2.45300        3.77000
N          2.14400       -1.30600        3.01100
C          3.19100       -0.56400        2.41400
H         -5.58800        0.98100       -0.80600
H         -5.45900        3.78300       -1.85300
H         -5.17100        1.33400        1.61700
H         -3.34100        2.41300        1.15300
H         -4.78500        0.31100       -2.74300
H         -4.32000        3.06300       -4.42700
H         -2.81400       -0.03100       -4.11100
H         -2.08500        3.24400       -2.60100
H          0.15800        3.74800       -3.72000
H         -2.48900        2.12400       -5.67900
H         -0.01200        2.30700       -1.49500
H          0.92600        1.67700       -2.90100
H          0.58500       -0.68500       -1.92500
H         -0.91300        1.08300        0.06500
H         -0.87500       -1.53700       -0.92600
H          0.42800        0.46600        1.77500
H         -1.00700       -1.48900        1.35000
H          1.93800       -1.45000       -0.08600
H          3.93800       -0.68800       -0.68100
H          4.67700        0.74000        0.07600
H          5.19900       -2.04800        0.56900
H          5.29700       -0.77900        3.03100
H          5.51800       -3.06500        2.80600
H          4.33300       -4.00000        1.12300
H          2.91800       -3.06200        1.40000
H          4.25800       -1.98400        4.65700
H          2.03800       -3.35800        3.25600
H          1.90400       -2.46600        4.76700
H          1.49800       -0.68900        3.58700
H          3.34000        0.34400        3.07600
