61
6ln3_ATP_conf45.pdb
P          3.38200        0.95500       -4.38300
O          3.04000        1.12100       -6.01500
O          4.91900        0.26400       -4.52300
O          3.38600        2.58900       -3.90900
P          1.12200       -0.66500       -4.15800
O          2.53200       -1.53700       -3.84500
O          0.73600       -2.22300       -3.61300
O          2.21100        0.32900       -3.35500
P         -0.21500        1.38500       -2.87800
O         -0.47900        2.84100       -2.13300
O         -1.18700        1.38800       -4.25100
O          0.53400        0.89000       -4.30800
O         -1.21300        0.25900       -2.13100
C         -1.86100        0.89600       -1.10400
C         -2.69500       -0.08600       -0.26800
O         -1.87900       -1.06300        0.28600
C         -3.29500        0.71700        0.83700
O         -4.67600        0.65000        0.79600
C         -2.84200       -0.07500        2.07300
O         -3.77500       -1.09200        2.28300
C         -1.53500       -0.62800        1.56000
N         -0.49200        0.33900        1.54900
C         -0.12100        0.83000        2.84600
N          1.07900        0.09900        3.26700
C          1.30200       -0.89800        2.25500
C          2.75600       -1.20500        2.01600
N          3.26700       -1.90600        3.16700
N          3.52400       -0.06900        1.61100
C          2.77500        1.11600        1.39200
N          1.56400        0.95900        0.67000
C          0.75400       -0.17900        1.02800
H          3.48100        0.06100       -3.28900
H          2.28900        0.55300       -6.29700
H          5.64100        0.81700       -4.13300
H          3.72800        2.64600       -2.98100
H         -0.03400       -0.82900       -4.97600
H          2.96100       -1.67700       -4.74800
H         -0.03400       -2.25600       -3.01300
H          0.72600        2.37700       -3.23100
H         -1.37600        3.21900       -2.39600
H         -1.72800        2.19400       -4.37500
H         -2.62100        1.60700       -1.53400
H         -1.21600        1.51700       -0.45300
H         -3.48700       -0.45500       -0.92100
H         -2.91900        1.75900        0.89000
H         -5.04500       -0.17500        1.16900
H         -2.75200        0.59700        2.92100
H         -4.36900       -0.87500        3.04600
H         -1.31700       -1.51100        2.20900
H          0.16000        1.91600        2.71700
H         -0.89300        0.81800        3.61100
H          0.84700       -0.37300        4.16800
H          0.76100       -1.83100        2.39200
H          2.76500       -1.94700        1.16900
H          2.50400       -2.56300        3.47200
H          4.13800       -2.44100        2.98800
H          4.26700       -0.27000        0.92300
H          3.42200        1.81100        0.78100
H          2.64000        1.65500        2.37200
H          1.60400        1.18200       -0.32700
H          0.61500       -0.86000        0.17300
