61
6ln3_ATP_conf3.pdb
P         -1.23700       -1.07300        7.00800
O          0.03200       -1.99900        7.67900
O         -1.74300       -2.34500        6.03800
O         -0.78400        0.56600        6.92500
P         -1.34800       -0.09800        4.37400
O         -0.05200        0.95000        4.11800
O         -2.78200        0.65100        3.91300
O         -2.11400       -0.26800        5.83900
P          0.20300       -1.20800        2.46100
O         -0.51400       -2.51000        1.66700
O         -0.51900        0.04300        1.60900
O          0.22800       -0.61000        4.05500
O          0.78200       -0.59000        0.97600
C          2.05700       -1.08100        0.77900
C          2.69100       -0.60800       -0.50800
O          2.01500       -0.95500       -1.64300
C          2.68900        0.92400       -0.57300
O          3.54300        1.50500        0.31600
C          3.12900        1.05100       -2.03400
O          4.40600        0.52100       -2.21000
C          2.16600        0.02800       -2.60800
N          0.91600        0.73600       -2.81000
C          1.05500        1.84200       -3.71700
N         -0.19800        1.94400       -4.47600
C         -1.09500        0.99900       -3.84000
C         -1.68500        1.66300       -2.63100
N         -0.96500        2.86600       -2.25700
N         -1.62100        0.78600       -1.46300
C         -1.91800       -0.54700       -1.92600
N         -0.69700       -1.04700       -2.53200
C         -0.10400       -0.06300       -3.40700
H         -2.13600       -1.11000        8.09300
H          0.65500       -2.17600        6.92100
H         -1.01600       -2.62600        5.42600
H          0.16600        0.59600        6.61100
H         -2.19100       -0.84600        3.52500
H         -0.44400        1.85700        3.96900
H         -2.53600        1.58700        3.66500
H          0.42500       -1.95700        3.61600
H         -1.32700       -2.77400        2.13900
H         -1.41400        0.25600        1.98900
H          2.71100       -0.72400        1.59500
H          2.04000       -2.17300        0.73600
H          3.74700       -0.90200       -0.48900
H          1.64100        1.25400       -0.52400
H          3.05600        1.99700        1.04900
H          3.01700        2.05300       -2.44100
H          4.95300        0.83400       -1.43900
H          2.47500       -0.36900       -3.58700
H          1.87900        1.59400       -4.41900
H          1.24200        2.77000       -3.14100
H         -0.55800        2.93400       -4.35400
H         -1.85600        0.60100       -4.53600
H         -2.73900        1.97700       -2.78100
H         -1.44800        3.74700       -2.56900
H         -0.88200        2.97100       -1.21700
H         -2.24800        1.12600       -0.72600
H         -2.72200       -0.45200       -2.69200
H         -2.20500       -1.25000       -1.13600
H         -0.98600       -1.87300       -3.13500
H          0.27900       -0.56500       -4.32200
