61
6ln3_ATP_conf12.pdb
P         -1.97400        0.47100       -4.34800
O         -1.28000        1.97900       -3.97900
O         -1.27900       -0.24500       -5.72800
O         -3.30800        0.78100       -5.33800
P         -1.28200       -1.71300       -2.86500
O         -2.04300       -3.19100       -3.25800
O         -2.46700       -1.03900       -1.84400
O         -1.66500       -0.08100       -2.79400
P          1.14300       -2.04500       -1.48300
O          2.60000       -2.18400       -2.33000
O          0.90600       -3.48100       -0.66100
O          0.29700       -2.27100       -2.91800
O          1.73100       -1.09100       -0.22100
C          2.42400        0.01900       -0.62300
C          2.94000        0.85700        0.51700
O          1.96900        1.34900        1.35500
C          3.91600        0.07600        1.38700
O          5.16400       -0.05500        0.84700
C          3.88100        1.02000        2.59900
O          4.48900        2.19900        2.17500
C          2.37700        1.19400        2.67100
N          1.80000       -0.04700        3.15100
C          2.27200       -0.41900        4.44800
N          1.32500       -1.43400        4.87300
C          0.04600       -0.94200        4.42200
C         -0.70100       -2.14000        3.85900
N          0.14000       -2.76300        2.85500
N         -1.94600       -1.71600        3.29400
C         -1.75200       -0.52500        2.50000
N         -0.37600       -0.29900        2.16500
C          0.37000        0.08200        3.34500
H         -0.62000        0.67800       -4.03000
H         -1.99200        2.68300       -3.90600
H         -1.22700       -1.20900       -5.53400
H         -3.50800        1.74200       -5.22200
H         -0.91900       -0.56500       -2.17100
H         -2.35900       -3.53800       -2.37100
H         -2.80400       -1.78800       -1.25800
H          1.38400       -2.21800       -0.10800
H          2.68500       -3.13400       -2.59700
H          0.76800       -4.25400       -1.26900
H          3.30400       -0.22400       -1.25800
H          1.76600        0.65400       -1.23700
H          3.51500        1.71300        0.10800
H          3.42700       -0.89600        1.64000
H          5.72300        0.72200        1.00600
H          4.30800        0.58000        3.50100
H          4.17300        3.00900        2.61400
H          2.09300        2.04800        3.31500
H          3.25900       -0.93200        4.43000
H          2.21200        0.39400        5.18900
H          1.36100       -1.62600        5.89100
H         -0.47300       -0.48600        5.27700
H         -0.81300       -2.85200        4.68600
H         -0.41800       -3.38600        2.21000
H          0.91000       -3.32400        3.27500
H         -2.41400       -2.49500        2.79600
H         -2.28900       -0.70200        1.52300
H         -2.20800        0.36600        2.96900
H         -0.34600        0.52400        1.51300
H          0.08700        1.08600        3.69800
