61
6ln3_ATP_conf0.pdb
P          4.71400        2.84700        3.18300
O          3.40600        3.00700        4.23800
O          6.31800        2.62900        3.67100
O          3.85000        4.30000        3.15800
P          5.34300        3.23000        0.57300
O          6.76500        2.30400        0.71300
O          5.72200        4.82300        1.00500
O          5.51400        2.17400        1.87300
P          3.13800        3.12000       -1.17200
O          2.93700        4.78200       -1.37900
O          2.85500        2.40300       -2.67600
O          4.79700        3.14100       -1.01400
O          2.46800        1.57100       -1.32100
C          1.17800        1.52100       -0.83100
C          0.61400        0.10600       -0.88700
O         -0.66800        0.02200       -0.41000
C          0.63100       -0.40600       -2.28600
O          1.30900       -1.61700       -2.28500
C         -0.83200       -0.69800       -2.54900
O         -0.84700       -1.82200       -3.37300
C         -1.34600       -0.93600       -1.16700
N         -2.73100       -0.71700       -0.95300
C         -2.98800       -0.97200        0.47500
N         -2.94200       -2.42100        0.51800
C         -3.72800       -2.86100       -0.64600
C         -3.13400       -4.11200       -1.15800
N         -1.91400       -4.53700       -0.49400
N         -2.91900       -4.17200       -2.57700
C         -3.74500       -3.28300       -3.32200
N         -3.45200       -1.92900       -2.91900
C         -3.63800       -1.66800       -1.54100
H          4.97900        1.57200        2.63900
H          2.90600        2.14800        4.21300
H          6.36900        2.27600        4.59200
H          3.74000        4.60700        2.22400
H          5.27900        1.84000        0.82400
H          7.53400        2.74000        0.23000
H          6.66200        4.79500        1.37000
H          4.24700        2.38900       -1.65700
H          2.63700        4.94900       -2.30500
H          2.71300        3.08300       -3.40200
H          0.56100        2.21200       -1.44200
H          1.17300        1.92200        0.19400
H          1.25300       -0.48300       -0.19400
H          1.04800        0.31300       -3.02200
H          2.12100       -1.61800       -1.73400
H         -1.35500        0.16300       -3.01500
H         -0.45700       -1.55800       -4.23400
H         -0.97500       -1.91700       -0.81300
H         -3.97600       -0.54700        0.68400
H         -2.20300       -0.56400        1.12400
H         -3.32800       -2.80500        1.39900
H         -4.74800       -3.01300       -0.23200
H         -3.86000       -4.95300       -0.94500
H         -1.63000       -3.95500        0.29700
H         -1.17300       -4.85300       -1.13900
H         -1.95300       -4.28600       -2.88800
H         -4.80400       -3.55300       -3.20500
H         -3.45600       -3.36900       -4.39000
H         -3.99300       -1.29700       -3.55800
H         -4.64800       -1.15300       -1.46800
