61
6ln3_ATP_conf31.pdb
P          1.57500        3.32600       -4.86800
O          1.08800        4.56200       -5.88800
O          1.63100        3.85000       -3.27900
O         -0.04900        2.86500       -5.03500
P          3.00400        1.01700       -4.77800
O          4.51800        0.34000       -4.56400
O          3.83200        2.09600       -3.74100
O          3.07400        2.64000       -5.19200
P          1.40100       -0.82600       -3.65200
O          2.11800       -1.88000       -2.53200
O          1.63600       -2.44100       -4.16100
O          1.55600        0.16000       -5.01700
O          0.12400       -0.20100       -2.74300
C         -0.43500       -1.14300       -1.89400
C         -1.55100       -0.44700       -1.15300
O         -2.22400       -1.23500       -0.26100
C         -1.05300        0.76900       -0.39900
O         -0.92500        1.87500       -1.23700
C         -2.19600        0.94100        0.58300
O         -3.22100        1.56000       -0.13800
C         -2.61700       -0.46600        0.82400
N         -2.01000       -1.06200        1.98800
C         -2.32800       -0.34100        3.20800
N         -1.90400       -1.28200        4.24900
C         -1.96700       -2.60300        3.66800
C         -0.57100       -3.13300        3.56800
N          0.41900       -2.05500        3.57700
N         -0.32200       -3.90500        2.36400
C         -1.59800       -4.49400        1.97600
N         -2.34300       -3.38100        1.36800
C         -2.60100       -2.34400        2.32200
H          2.80200        3.68900       -5.43400
H          0.81500        5.37100       -5.38700
H          0.75600        4.31100       -3.08700
H         -0.01900        2.03100       -5.58500
H          4.08000        1.32100       -5.59900
H          4.40800       -0.40300       -3.92800
H          3.58300        1.91900       -2.78200
H          0.62500        0.31700       -3.90000
H          2.79700       -1.36100       -2.05800
H          1.15300       -2.59200       -5.03000
H         -0.90400       -1.92000       -2.53400
H          0.29700       -1.61300       -1.22200
H         -2.28700       -0.09200       -1.90400
H         -0.13700        0.57400        0.18200
H          0.02000        1.94800       -1.52600
H         -1.89900        1.51700        1.46900
H         -3.18000        2.54500       -0.07800
H         -3.72000       -0.53200        0.91900
H         -3.43500       -0.32000        3.28200
H         -1.84100        0.62800        3.30400
H         -0.94100       -1.00900        4.56300
H         -2.62200       -3.25300        4.30600
H         -0.31000       -3.81600        4.41400
H          0.70000       -1.75900        2.62200
H          1.23600       -2.30700        4.19600
H         -0.02000       -3.22300        1.62600
H         -1.38300       -5.22400        1.17300
H         -2.14700       -4.91500        2.82300
H         -3.24900       -3.72600        0.94600
H         -3.69100       -2.25600        2.49100
