61
6ln3_ATP_conf32.pdb
P          0.31900       -5.79300        5.43600
O          1.75300       -6.50900        4.90000
O          0.68500       -4.49300        6.40600
O         -1.12000       -5.53800        4.64400
P          0.62700       -3.95200        3.34500
O          1.87700       -2.91800        2.86900
O         -0.45600       -2.90600        4.10000
O         -0.10200       -4.27500        4.82000
P         -0.38600       -3.70100        0.76100
O          0.23700       -4.10300       -0.75700
O         -1.73000       -4.70200        0.99600
O          0.77500       -4.47400        1.73400
O         -1.15100       -2.27400        0.28500
C         -0.29500       -1.53600       -0.51900
C         -0.91300       -0.24100       -0.98100
O         -0.03100        0.50500       -1.80100
C         -2.12300       -0.45200       -1.84500
O         -3.32100       -0.34100       -1.13500
C         -2.04600        0.78700       -2.75300
O         -3.24400        1.45500       -2.78800
C         -0.92500        1.54000       -2.13600
N         -0.35200        2.60300       -2.82300
C          0.74000        3.29900       -2.24200
N          0.92000        4.52700       -2.99100
C         -0.18900        4.62300       -3.92200
C         -0.87700        5.96500       -3.80000
N          0.13800        6.98200       -3.99300
N         -1.44000        6.15200       -2.47800
C         -2.12200        4.97400       -2.00000
N         -2.29200        3.93300       -2.95800
C         -1.12200        3.46600       -3.61600
H         -0.56600       -4.70600        5.71800
H          2.42300       -5.80100        4.80700
H          1.66500       -4.58500        6.63700
H         -1.34600       -6.41600        4.19700
H          1.93200       -4.08000        3.83100
H          1.44800       -2.07100        2.56600
H         -0.65700       -2.14000        3.48500
H          0.92500       -4.22500        0.66300
H         -0.46100       -4.54100       -1.30100
H         -1.55900       -5.56900        0.53800
H          0.63200       -1.37000        0.02700
H         -0.05200       -2.13900       -1.43000
H         -1.15000        0.39800       -0.12000
H         -2.10200       -1.39000       -2.40000
H         -3.57300       -1.22600       -0.74900
H         -1.74400        0.37800       -3.74800
H         -3.81400        1.02400       -3.47600
H         -1.26800        1.91500       -1.12600
H          1.69200        2.73100       -2.23900
H          0.51300        3.54100       -1.18600
H          1.84600        4.51600       -3.50300
H          0.22000        4.56900       -4.95100
H         -1.62500        6.08900       -4.60300
H          0.44600        7.43900       -3.10600
H          0.95700        6.59700       -4.53500
H         -2.11300        6.94700       -2.54500
H         -1.61300        4.62700       -1.08200
H         -3.15400        5.27300       -1.65700
H         -3.11200        4.07200       -3.59100
H         -1.42300        3.07000       -4.60700
