61
6ln3_ATP_conf5.pdb
P          1.59400        0.84200        3.67900
O          1.76300        1.32400        5.30600
O          2.88400       -0.23400        3.64200
O          0.17100       -0.06800        3.82900
P          2.81700        1.67700        1.29300
O          2.15200        2.33600       -0.14000
O          3.58000        3.00600        1.92900
O          1.42000        1.66900        2.23200
P          2.75600       -0.66000        0.03400
O          3.96800        0.11700       -0.81100
O          3.43100       -2.21100       -0.13000
O          1.75300        0.58700        0.64300
O          1.11200       -0.87700        0.18500
C          0.70500       -2.03700       -0.45500
C         -0.81000       -2.23600       -0.31500
O         -1.42500       -1.14300       -0.89200
C         -1.16300       -3.46800       -1.13500
O         -2.33500       -4.02400       -0.61600
C         -1.48400       -2.76700       -2.47100
O         -2.27500       -3.65400       -3.19200
C         -2.23400       -1.59800       -1.92700
N         -2.47100       -0.57900       -2.87100
C         -1.26400        0.03700       -3.35900
N         -0.86300        0.89900       -2.26100
C         -2.11600        1.33800       -1.64200
C         -2.23900        2.82300       -1.65400
N         -2.97000        3.26200       -0.47600
N         -2.77100        3.39300       -2.85400
C         -3.84800        2.66200       -3.44100
N         -3.66000        1.26400       -3.53900
C         -3.17300        0.58500       -2.36800
H          1.50500       -0.42400        4.30500
H          2.29400        2.17700        5.33100
H          3.64300        0.23900        3.23600
H         -0.54900        0.27900        3.22800
H          1.41500        1.79100        1.11600
H          2.74200        3.04200       -0.52800
H          2.88100        3.73400        1.87100
H          2.69600       -0.78600       -1.36200
H          4.06100        1.01500       -0.41900
H          3.14100       -2.68400        0.71300
H          1.20200       -2.95200       -0.07400
H          0.95900       -1.92800       -1.52400
H         -1.06800       -2.42300        0.73100
H         -0.34200       -4.18500       -1.23000
H         -2.82400       -3.33500       -0.07300
H         -0.51900       -2.56800       -2.92600
H         -1.76900       -4.52300       -3.19900
H         -3.21100       -1.97900       -1.55300
H         -0.54700       -0.72000       -3.64300
H         -1.59000        0.67500       -4.22800
H         -0.44700        1.74400       -2.70800
H         -2.12400        1.04300       -0.55100
H         -1.19500        3.24000       -1.53700
H         -3.93300        3.59100       -0.67700
H         -2.41900        3.84600        0.17300
H         -2.07200        3.78700       -3.51200
H         -3.98600        3.04200       -4.47600
H         -4.77700        2.95100       -2.88700
H         -4.58500        0.83500       -3.80300
H         -3.99200        0.30500       -1.67100
