61
6ln3_ATP_conf4.pdb
P         -1.74300       -2.38500        4.19100
O         -1.72500       -0.74800        4.64100
O         -3.23400       -3.16400        4.47200
O         -1.95900       -3.45200        2.92100
P          0.47600       -3.85600        4.46200
O          1.70400       -4.83900        3.93300
O         -0.03500       -4.37800        5.95900
O         -0.72300       -3.12200        5.35200
P          0.89100       -1.85300        2.71000
O          2.52300       -2.06900        2.43200
O          1.05300       -0.25100        3.16600
O          1.63500       -2.74100        3.93900
O          0.25400       -1.45900        1.19400
C          1.21300       -1.54400        0.19800
C          0.54000       -1.24200       -1.14800
O          0.01700        0.03000       -1.07700
C          1.59100       -1.23700       -2.24300
O          1.07500       -1.93900       -3.31700
C          1.60700        0.23300       -2.61400
O          1.97400        0.45300       -3.93100
C          0.14800        0.55000       -2.36000
N         -0.14000        1.91900       -2.50900
C          0.54800        2.83700       -1.66100
N         -0.32200        4.01900       -1.53900
C         -1.46500        3.73000       -2.39100
C         -2.75600        4.29000       -1.91500
N         -2.60600        4.96500       -0.63900
N         -3.70900        3.22200       -1.75800
C         -3.74500        2.30600       -2.86900
N         -2.48100        1.61000       -3.06100
C         -1.51100        2.20500       -2.20600
H         -1.87700       -3.04100        5.43300
H         -1.66600       -0.13300        3.87400
H         -3.99500       -2.53300        4.37100
H         -2.21400       -2.93400        2.14000
H         -0.19400       -4.86600        3.71900
H          1.95000       -5.40800        4.73200
H          0.46800       -5.22000        6.20500
H         -0.01100       -0.84200        2.28700
H          2.97100       -1.36900        1.91600
H          1.54900       -0.12700        3.99900
H          1.88400       -0.65100        0.35700
H          1.80100       -2.46100        0.18700
H         -0.29200       -1.95000       -1.36000
H          2.58200       -1.59100       -1.90700
H          1.07100       -2.92300       -3.16900
H          2.23500        0.78300       -1.88900
H          2.47900        1.32600       -3.93700
H         -0.50600       -0.02300       -3.02400
H          1.45200        3.17200       -2.21100
H          0.75700        2.40600       -0.67000
H          0.12500        4.88000       -1.90200
H         -1.25900        3.92300       -3.45000
H         -3.13000        5.00600       -2.69100
H         -2.41500        5.98700       -0.81300
H         -3.54100        4.90500       -0.17600
H         -3.60300        2.69000       -0.88700
H         -4.47800        1.50700       -2.56900
H         -4.08300        2.74300       -3.81500
H         -2.16300        1.65300       -4.03600
H         -1.69400        2.00400       -1.12200
