61
6ln3_ATP_conf39.pdb
P          1.21900        0.54500       -3.59600
O          1.45900       -0.02300       -5.17400
O          0.48500       -0.73300       -2.72900
O         -0.24800        1.41600       -3.66400
P          3.54200        1.47000       -2.48300
O          2.60200        2.76700       -2.96100
O          4.62700        2.74800       -2.51700
O          2.68500        1.31600       -3.90600
P          4.45700        0.09700       -0.29700
O          4.66400       -1.55600       -0.13500
O          5.57500        0.39800        0.94300
O          3.27200        0.14500       -1.47400
O          2.79900        0.32000       -0.16100
C          2.58600        1.42100        0.70000
C          1.07600        1.55300        0.76800
O          0.50900        0.38800        1.27500
C          0.61100        2.59100        1.72900
O          0.35500        3.83900        1.12200
C         -0.73500        2.02600        2.16300
O         -1.78900        2.83700        1.73700
C         -0.83100        0.75200        1.38200
N         -1.57900       -0.27100        2.08600
C         -2.93200        0.17200        2.35900
N         -3.65800       -1.04700        2.64400
C         -2.86300       -2.15000        2.08600
C         -2.22000       -2.84900        3.25300
N         -2.24000       -2.06700        4.47600
N         -0.86200       -3.23700        2.99800
C         -0.70600       -3.46500        1.58200
N         -0.68500       -2.17700        0.92600
C         -1.85300       -1.41200        1.23300
H          0.37000        0.75700       -2.50300
H          0.82000       -0.75000       -5.32900
H          0.76200       -1.58300       -3.17900
H         -0.36400        1.86900       -4.55200
H          3.99900        0.99800       -3.72300
H          2.10600        3.19600       -2.23400
H          4.74900        3.04800       -1.59000
H          4.82200       -0.57300       -1.43100
H          3.94200       -1.98300        0.37800
H          5.20600        1.27300        1.28800
H          2.93600        1.22500        1.72100
H          3.02600        2.33500        0.26900
H          0.61400        1.75200       -0.21900
H          1.24400        2.68600        2.63300
H          0.19400        3.63500        0.17200
H         -0.81100        1.90700        3.25300
H         -1.75200        2.97600        0.75700
H         -1.23400        0.92000        0.37200
H         -3.33800        0.56100        1.40200
H         -2.98300        0.92300        3.17000
H         -4.61600       -1.00300        2.22800
H         -3.53000       -2.81600        1.49700
H         -2.78700       -3.78200        3.46800
H         -2.06000       -1.05300        4.31400
H         -1.43900       -2.38800        5.09300
H         -0.25100       -2.42000        3.24300
H          0.22300       -4.02100        1.38500
H         -1.54200       -4.07400        1.20100
H         -0.72200       -2.37100       -0.11900
H         -2.40500       -1.04400        0.34200
