61
6ln3_ATP_conf25.pdb
P         -1.63000       -2.77500       -2.24000
O         -2.98100       -1.80600       -2.01100
O         -1.07500       -4.22900       -1.58000
O          0.05700       -2.82400       -2.20200
P         -0.90100       -1.93300       -4.74600
O         -1.57000       -3.36100       -5.38300
O          0.80300       -1.88700       -4.74000
O         -2.00900       -2.82800       -3.87400
P         -1.75000        0.69400       -4.50600
O         -3.36100        1.24300       -4.48000
O         -1.04200        1.13100       -6.00000
O         -1.83700       -0.72000       -5.42800
O         -0.88300        1.70400       -3.44700
C         -1.06000        1.21900       -2.16900
C         -0.34100        2.02500       -1.12400
O         -0.59000        1.44700        0.11400
C          1.15300        1.94300       -1.33900
O          1.65200        3.09500       -1.92900
C          1.72300        1.73300        0.03000
O          2.52900        2.82400        0.35500
C          0.50300        1.66900        0.90700
N          0.71300        0.61700        1.85900
C          1.87500        0.83700        2.69300
N          1.38900        1.07100        4.06100
C          0.01000        1.42300        3.84600
C         -0.88800        1.20400        5.01200
N         -0.25700        1.02800        6.27900
N         -1.80800        0.12000        4.68700
C         -2.53800        0.45900        3.48400
N         -1.66900        0.71200        2.34600
C         -0.34100        0.40000        2.78400
H         -2.37900       -3.47100       -3.18600
H         -2.81300       -1.23600       -1.21100
H         -1.59800       -4.56400       -0.83400
H          0.47500       -1.97800       -2.42700
H         -1.86200       -1.66800       -5.75800
H         -0.89200       -3.88300       -5.91800
H          1.07900       -2.40300       -5.55000
H         -2.78300        0.01200       -5.17500
H         -3.41400        1.90900       -3.77400
H         -1.66000        1.78500       -6.40600
H         -0.60400        0.20200       -2.14900
H         -2.14500        1.17700       -1.92100
H         -0.63800        3.08500       -1.13700
H          1.40900        1.05600       -1.97200
H          2.05000        2.89700       -2.80600
H          2.33500        0.81400        0.09300
H          2.05200        3.65300        0.04100
H          0.43900        2.63100        1.46900
H          2.45800       -0.12100        2.63200
H          2.54400        1.62900        2.36200
H          1.47800        0.15300        4.54900
H         -0.07700        2.42400        3.42800
H         -1.53800        2.10100        5.11300
H         -0.64200        1.63700        7.03500
H          0.75500        0.91600        6.29800
H         -2.50000       -0.07600        5.41600
H         -3.13900       -0.44100        3.22600
H         -3.25300        1.29400        3.61800
H         -1.95300        0.15800        1.50800
H         -0.28200       -0.63500        3.16900
