61
6ln3_ATP_conf36.pdb
P          3.33000        1.54600        0.97300
O          4.07500        3.06300        0.82800
O          4.02300        0.88000        2.37000
O          1.70500        1.80700        1.32500
P          2.42700       -0.18500       -0.99700
O          3.93600       -0.28500       -1.78100
O          1.22000       -0.19800       -2.19700
O          2.82100        1.42000       -0.62300
P          2.89700       -2.09100        0.89500
O          4.37100       -2.78800        1.39900
O          2.11700       -1.93800        2.40200
O          3.61900       -0.92000       -0.07100
O          1.25600       -2.35600        1.16700
C          0.67000       -3.07300        0.12000
C         -0.79700       -3.25000        0.48200
O         -1.44500       -2.05200        0.63600
C         -1.55500       -4.09500       -0.48800
O         -2.47100       -4.92500        0.14400
C         -2.25400       -3.03500       -1.32500
O         -3.53700       -3.48300       -1.65000
C         -2.23600       -1.81100       -0.48100
N         -1.71600       -0.64800       -1.14900
C         -2.47700       -0.28800       -2.32700
N         -1.95800        1.03700       -2.61800
C         -1.95700        1.64300       -1.29200
C         -3.13300        2.54000       -1.09900
N         -2.74500        3.86400       -0.63800
N         -4.17200        1.96900       -0.27800
C         -3.66000        1.41100        0.94700
N         -2.73100        0.36400        0.69600
C         -1.78000        0.54300       -0.32300
H          3.49300        2.12400       -0.28900
H          3.88000        3.63700        1.59700
H          4.91900        0.52700        2.10100
H          1.49000        2.77600        1.17400
H          1.89300        1.07900       -1.23300
H          3.79500       -0.80600       -2.61900
H          1.47400       -0.89500       -2.85300
H          3.20400       -3.45100        0.64800
H          4.65500       -2.27900        2.19800
H          2.74500       -1.51400        3.06700
H          1.17500       -4.05900        0.08700
H          0.80700       -2.60100       -0.86700
H         -0.78200       -3.81000        1.46000
H         -0.83300       -4.67600       -1.08900
H         -2.49800       -5.83100       -0.20800
H         -1.70600       -2.93700       -2.28000
H         -4.16000       -3.12200       -0.96700
H         -3.27500       -1.66300       -0.10700
H         -2.22400       -0.92200       -3.20200
H         -3.56600       -0.26500       -2.11900
H         -2.66500        1.58400       -3.19100
H         -1.05200        2.28700       -1.28800
H         -3.60200        2.71000       -2.10400
H         -1.91000        4.13600       -1.23900
H         -3.48200        4.57600       -0.90900
H         -4.88300        2.69400       -0.10200
H         -3.29600        2.16500        1.66400
H         -4.54800        0.93500        1.45300
H         -2.30700        0.09300        1.61300
H         -0.76400        0.59100        0.16900
