61
6ln3_ATP_conf46.pdb
P          0.99100       -2.01700        4.71200
O          2.06100       -3.24800        5.21600
O          0.57000       -2.47200        6.27800
O          0.14000       -2.77600        3.44500
P          2.51700        0.17000        4.15400
O          4.17200        0.03800        3.78000
O          3.41700       -0.32500        5.42100
O          1.01400       -0.54600        3.88000
P          1.53900        1.27200        1.96800
O          3.21900        1.29500        1.80400
O          0.88000        2.82500        2.05600
O          1.08200        0.77900        3.51200
O          0.20600        1.61500        0.98500
C         -0.42400        0.47700        0.54100
C         -1.61700        0.81400       -0.36200
O         -1.11300        1.51600       -1.42700
C         -2.21800       -0.41100       -0.96700
O         -3.34100       -0.77300       -0.21600
C         -2.70600        0.07300       -2.34000
O         -4.08200        0.28200       -2.30700
C         -1.91900        1.29400       -2.53800
N         -1.22200        1.44300       -3.76900
C         -0.52400        2.71800       -3.71200
N          0.80300        2.43000       -3.17300
C          0.94100        1.00200       -3.16500
C          2.26600        0.65700       -3.85600
N          3.32200        0.98200       -2.93500
N          2.27300        1.51100       -5.02800
C          1.29400        1.01700       -5.95000
N          0.08300        0.56900       -5.45100
C         -0.15900        0.54400       -4.05300
H         -0.35500       -1.80400        4.44600
H          2.36300       -3.68800        4.36000
H          0.31900       -1.67900        6.81600
H          0.83800       -3.22900        2.87400
H          2.72200        1.53400        4.43900
H          4.25600       -0.51200        2.94600
H          3.03100       -0.19900        6.32200
H          0.48300        1.23000        2.86500
H          3.49600        2.20100        2.15000
H          1.63300        3.45400        2.26100
H          0.24800       -0.25400        0.04900
H         -0.83900       -0.04900        1.42600
H         -2.35600        1.36900        0.24900
H         -1.50600       -1.25400       -1.07000
H         -3.13600       -1.33500        0.55500
H         -2.52300       -0.76000       -3.02600
H         -4.34400        0.88100       -1.56600
H         -2.65500        2.15400       -2.52600
H         -0.34800        3.16300       -4.70800
H         -1.07000        3.44800       -3.06600
H          0.99200        2.91500       -2.29100
H          0.88300        0.53200       -2.16700
H          2.23300       -0.39400       -4.16500
H          4.09100        0.27200       -2.98900
H          2.95300        0.93000       -1.95600
H          3.21700        1.52500       -5.48200
H          1.12400        1.84400       -6.69000
H          1.79300        0.20400       -6.53000
H         -0.72900        0.91700       -6.01000
H         -0.37100       -0.51400       -3.79600
