61
6ln3_ATP_conf38.pdb
P          4.16700        2.48500       -1.07100
O          4.87200        1.19100       -1.90900
O          5.56500        3.13300       -1.80000
O          2.49200        2.39200       -1.36600
P          3.40900        2.84100        1.59200
O          3.22600        4.27400        0.73500
O          4.77700        3.35300        2.46900
O          4.20800        1.84300        0.47500
P          1.96100        1.74600        3.67300
O          0.49500        1.88800        4.48400
O          1.67800        3.38400        3.59600
O          2.79300        1.40800        2.22500
O          1.45700        0.49700        2.61400
C          0.94700       -0.48200        3.42800
C          0.42700       -1.67500        2.67500
O         -0.59700       -1.35100        1.79500
C          1.45300       -2.24100        1.71600
O          2.49000       -2.89800        2.34700
C          0.55000       -3.18700        0.94100
O          0.53400       -4.37200        1.70800
C         -0.78000       -2.52000        1.05800
N         -1.39800       -2.32200       -0.21600
C         -2.69100       -1.67400       -0.12400
N         -2.63800       -0.45000       -0.86500
C         -1.55400       -0.60900       -1.81500
C         -2.12400       -1.17000       -3.09400
N         -3.15200       -2.14000       -2.87200
N         -1.13800       -1.75200       -3.95600
C          0.18300       -1.67000       -3.36400
N          0.12200       -2.38000       -2.09300
C         -0.60600       -1.57000       -1.13800
H          4.62400        1.35700       -0.36700
H          4.40400        0.97400       -2.75100
H          5.55100        4.10100       -1.71500
H          2.32900        2.54400       -2.33000
H          3.14500        3.95900        2.40100
H          2.46400        4.22500        0.08400
H          5.49400        3.64000        1.84300
H          2.65200        2.16100        4.82700
H         -0.30200        1.80600        3.92800
H          1.16600        3.69300        2.80700
H          1.80500       -0.88000        4.03700
H          0.19700       -0.15600        4.16300
H          0.09600       -2.48600        3.35200
H          1.81900       -1.41500        1.05400
H          3.28200       -2.30300        2.33800
H          0.91100       -3.37100       -0.07800
H          1.44800       -4.72500        1.86400
H         -1.48800       -3.14800        1.67300
H         -2.99800       -1.49400        0.93100
H         -3.43000       -2.40000       -0.52200
H         -2.56900        0.40700       -0.28700
H         -1.09900        0.39000       -1.96600
H         -2.59200       -0.30100       -3.63000
H         -2.83600       -3.13400       -2.94400
H         -4.01700       -2.01500       -3.42400
H         -1.17800       -1.35800       -4.90400
H          0.95000       -2.09300       -4.01200
H          0.36800       -0.60400       -3.10200
H         -0.31100       -3.31600       -2.25200
H          0.15900       -0.94800       -0.61700
