61
6ln3_ATP_conf8.pdb
P          0.44500        4.05800        4.69300
O          0.15700        4.00400        6.37500
O         -0.20900        2.62200        4.08800
O         -0.98300        4.82600        4.18800
P          3.11800        4.03500        3.84500
O          4.54900        4.76600        4.31900
O          2.79600        2.78800        4.93800
O          1.56200        4.55900        3.55800
P          3.07600        2.51500        1.51700
O          4.24700        1.51500        2.21100
O          4.03100        3.26700        0.34300
O          3.03200        4.07700        2.15500
O          2.35400        1.00600        1.30900
C          1.54100        1.06500        0.19400
C          0.83700       -0.25600       -0.00000
O         -0.00700       -0.23500       -1.13600
C          1.79700       -1.35000       -0.41500
O          2.57600       -1.81900        0.62600
C          0.79200       -2.40600       -0.89100
O          0.47100       -3.29100        0.10900
C         -0.40700       -1.55200       -1.23900
N         -0.89700       -1.96900       -2.50100
C         -2.04900       -1.22200       -2.97400
N         -2.79000       -2.13000       -3.83500
C         -2.10400       -3.38300       -3.76600
C         -2.97800       -4.59900       -3.76500
N         -4.27900       -4.32000       -3.16000
N         -2.32300       -5.74300       -3.22400
C         -1.50200       -5.54200       -2.08200
N         -0.62800       -4.37100       -2.21000
C         -1.51400       -3.27200       -2.35200
H          0.41700        5.12800        3.76800
H          0.96900        4.31400        6.83900
H         -0.86500        2.27400        4.73900
H         -1.75400        4.55200        4.76200
H          3.53200        3.98600        5.18700
H          5.01400        5.17100        3.52200
H          2.35500        2.00300        4.47800
H          3.03300        3.89900        1.17000
H          5.09700        1.98300        2.28900
H          4.57800        2.59300       -0.17000
H          0.83300        1.89900        0.23000
H          2.21800        1.23600       -0.67300
H          0.25200       -0.55300        0.89000
H          2.38400       -0.97500       -1.26900
H          3.52200       -1.55300        0.40600
H          1.20800       -2.92600       -1.77700
H          1.15500       -3.29000        0.82500
H         -1.22600       -1.67600       -0.47800
H         -1.63200       -0.42000       -3.64200
H         -2.65900       -0.77700       -2.19000
H         -2.92400       -1.74200       -4.78400
H         -1.32100       -3.43800       -4.52200
H         -3.20900       -4.83000       -4.84300
H         -4.24200       -3.55600       -2.47500
H         -4.58100       -5.22400       -2.71000
H         -1.93100       -6.41300       -3.90900
H         -2.06600       -5.39700       -1.13500
H         -0.84900       -6.40800       -1.95900
H         -0.08200       -4.46900       -3.10000
H         -2.35400       -3.26400       -1.63600
