43
6ln3_ATP_model_49_chainB_pH74.pdb
N          4.59700       -1.04900       -4.44800
C          5.65700       -1.29100       -3.63000
N          6.89400       -1.41500       -4.16100
C          7.95200       -1.66000       -3.34800
N          7.86200       -1.79400       -2.01800
C          6.63900       -1.67500       -1.46200
N          6.24300       -1.75600       -0.18100
C          4.89800       -1.55100       -0.13800
N          4.43100       -1.34300       -1.37600
C          5.48300       -1.41600       -2.21500
C          7.14600       -2.03200        0.93600
O          6.42900       -2.59900        2.02000
C          6.62400       -1.79300        3.15800
C          5.39400       -1.84500        4.03700
O          4.28200       -1.48700        3.28700
P          3.01100       -0.76200        3.97300
O          2.79900       -1.28000        5.34900
O          1.88200       -0.91100        3.02700
O          3.39200        0.81600        3.99000
P          4.22600        1.72900        5.01800
O          5.05300        2.68300        4.21000
O          5.00900        0.85700        5.93000
O          3.15900        2.56400        5.89300
P          1.56200        2.84600        5.72400
O          1.31100        3.24300        4.30500
O          1.23900        3.97800        6.67900
O          0.87300        1.60000        6.11800
C          6.92800       -0.40500        2.62500
O          7.60500        0.42300        3.54500
C          7.79400       -0.76200        1.44300
O          9.12600       -1.04700        1.87800
H          4.73400       -0.96600       -5.41900
H          3.69300       -0.95700       -4.06800
H          8.88500       -1.74900       -3.78100
H          4.32400       -1.55500        0.72000
H          7.89300       -2.70700        0.57500
H          7.43000       -2.12300        3.77900
H          5.50900       -1.16400        4.85400
H          5.26600       -2.83600        4.41900
H          6.05500        0.17200        2.40100
H          8.42800       -0.00800        3.82300
H          7.86300        0.01600        0.71200
H          9.10500       -1.75100        2.54400
