31
6ln3_ATP_model_37_chainB.pdb
N          4.98000        3.79200        2.89600
C          4.80600        5.13300        2.74800
N          5.88700        5.94000        2.64000
C          5.71700        7.27400        2.49400
N          4.52500        7.87900        2.44400
C          3.43000        7.09700        2.55000
N          2.12400        7.40500        2.53100
C          1.40800        6.25500        2.66100
N          2.24200        5.21800        2.76500
C          3.49800        5.70400        2.69900
C          1.61700        8.76700        2.39300
O          0.31800        8.87200        2.95200
C         -0.56100        9.33300        1.95000
C         -1.94100        8.77100        2.19000
O         -1.84900        7.39200        2.26700
P         -3.10600        6.45800        1.87400
O         -4.38800        7.12500        2.25100
O         -2.83900        5.12300        2.47600
O         -2.95300        6.28600        0.26400
P         -3.53400        7.10200       -0.99200
O         -4.41700        8.23500       -0.53900
O         -2.36300        7.50700       -1.83500
O         -4.38300        6.00100       -1.82000
P         -5.61900        5.04200       -1.34500
O         -6.51700        5.86700       -0.43900
O         -6.32900        4.64200       -2.62500
O         -5.00300        3.87200       -0.66300
C          0.05600        8.89200        0.63500
O         -0.40200        9.62200       -0.49000
C          1.51000        9.15900        0.93100
O          1.79500       10.55500        0.78700
