31
6ln3_ATP_model_4_chainB.pdb
N          1.96300        4.15700       -3.67700
C          3.30900        4.16500       -3.46800
N          4.02800        5.26000       -3.80000
C          5.37000        5.26800       -3.59500
N          6.06000        4.24400       -3.07300
C          5.36400        3.14100       -2.73200
N          5.77000        1.97900       -2.19600
C          4.67900        1.18000       -2.03100
N          3.58200        1.82000       -2.46000
C          3.97500        3.03300       -2.90000
C          7.16500        1.67500       -1.87500
O          7.38100        0.27200       -1.89300
C          7.88400       -0.11900       -0.63500
C          7.43700       -1.52700       -0.32700
O          6.04900       -1.60200       -0.45900
P          5.19600       -2.52300        0.55800
O          5.91700       -3.80100        0.80400
O          3.81600       -2.61500        0.01200
O          5.15100       -1.57600        1.88300
P          5.69900       -1.77600        3.38000
O          6.64500       -2.92700        3.46500
O          6.27300       -0.45900        3.78600
O          4.36500       -2.04400        4.24600
P          3.52500       -3.43800        4.44200
O          4.44100       -4.41500        5.15400
O          3.12200       -3.91700        3.07500
O          2.34300       -3.06400        5.26600
C          7.36000        0.91200        0.34600
O          8.08500        0.97500        1.55600
C          7.53000        2.16000       -0.48700
O          8.89600        2.58100       -0.47100
