31
6ln3_ATP_model_30_chainB.pdb
N         -3.34500       -0.47400        3.98300
C         -4.32900        0.46200        3.91300
N         -4.88500        0.93600        5.05300
C         -5.86600        1.87100        4.98300
N         -6.34500        2.37300        3.83800
C         -5.80600        1.91600        2.69000
N         -6.07100        2.22900        1.41300
C         -5.24600        1.49800        0.61200
N         -4.46200        0.72300        1.36200
C         -4.78500        0.95700        2.65300
C         -7.08900        3.19400        1.01300
O         -7.51900        2.94000       -0.31600
C         -7.30600        4.10500       -1.08300
C         -7.00500        3.72700       -2.51100
O         -5.94900        2.82300       -2.52600
P         -4.88600        2.82900       -3.74000
O         -5.58100        3.08900       -5.03400
O         -4.10400        1.57100       -3.63500
O         -3.89500        4.05100       -3.33100
P         -3.72000        5.56400       -3.83400
O         -4.81200        5.95100       -4.79300
O         -3.63100        6.41800       -2.61400
O         -2.27900        5.58600       -4.55900
P         -1.73600        4.78700       -5.87300
O         -2.86800        4.71600       -6.87400
O         -0.57900        5.61900       -6.39700
O         -1.28100        3.45800       -5.39900
C         -6.16700        4.83900       -0.39700
O         -6.10600        6.21700       -0.70800
C         -6.53300        4.60300        1.04600
O         -7.55800        5.51000        1.45400
