31
6ln3_ATP_model_29_chainB.pdb
N         -2.85900       -3.42700       -1.75300
C         -3.99200       -3.27500       -1.01300
N         -4.85600       -4.31000       -0.90000
C         -5.98600       -4.16100       -0.16600
N         -6.32500       -3.03900        0.47200
C         -5.47900       -1.99400        0.37500
N         -5.54800       -0.76300        0.89700
C         -4.43600       -0.07400        0.51400
N         -3.66400       -0.85300       -0.24800
C         -4.28300       -2.04700       -0.35300
C         -6.65700       -0.29400        1.72500
O         -6.74800        1.11900        1.66500
C         -6.65600        1.62800        2.97500
C         -5.99900        2.98300        2.93700
O         -4.76400        2.86700        2.31700
P         -3.56300        3.88200        2.66600
O         -4.10000        5.22500        3.01700
O         -2.61800        3.82400        1.52700
O         -2.79700        3.20000        3.92800
P         -3.10700        3.13200        5.50100
O         -4.30700        3.97000        5.83900
O         -3.21400        1.68700        5.86800
O         -1.79700        3.71900        6.22900
P         -0.67200        4.78700        5.74600
O         -1.39700        5.95700        5.14100
O          0.07700        5.18900        6.99700
O          0.20200        4.06600        4.79200
C         -5.86900        0.59100        3.75700
O         -6.05500        0.66900        5.15300
C         -6.45500       -0.67100        3.17600
O         -7.72100       -0.94500        3.78100
