43
6ln3_ATP_model_31_chainB_pH74.pdb
N         -0.18800        3.91400       -3.85700
C         -0.10000        3.53400       -5.16500
N          0.62300        4.28100       -6.03000
C          0.71200        3.90700       -7.32900
N          0.12000        2.82500       -7.84200
C         -0.60800        2.06200       -7.00200
N         -1.30200        0.93300       -7.22200
C         -1.86000        0.54300       -6.04200
N         -1.52700        1.40600       -5.07400
C         -0.75600        2.35700       -5.63900
C         -1.41200        0.28800       -8.53000
O         -2.58700       -0.49800       -8.58800
C         -2.21900       -1.82200       -8.89600
C         -3.20500       -2.77400       -8.26900
O         -3.29500       -2.51300       -6.90600
P         -3.46400       -3.73200       -5.86100
O         -4.41600       -4.74400       -6.40600
O         -3.79700       -3.13300       -4.53900
O         -1.94300       -4.30800       -5.76900
P         -1.26300       -5.67800       -6.26800
O         -2.13500       -6.39100       -7.25500
O          0.09500       -5.32600       -6.78100
O         -1.06400       -6.54800       -4.92300
P         -2.16200       -7.19800       -3.90500
O         -3.40200       -7.54300       -4.69800
O         -1.48700       -8.44100       -3.34500
O         -2.40400       -6.18300       -2.84300
C         -0.80100       -1.97200       -8.37800
O         -0.08300       -3.04400       -8.97000
C         -0.23900       -0.63600       -8.77800
O          0.08700       -0.63300      -10.17200
H          0.27100        4.72900       -3.54900
H         -0.71100        3.37400       -3.22100
H          1.27400        4.49600       -7.96300
H         -2.45100       -0.29300       -5.91300
H         -1.43300        1.06300       -9.26700
H         -2.24000       -2.04700       -9.94200
H         -2.87400       -3.78100       -8.41900
H         -4.16500       -2.64400       -8.72200
H         -0.74500       -2.20800       -7.33600
H         -0.06900       -2.93100       -9.93300
H          0.65300       -0.36900       -8.25100
H         -0.69900       -0.87200      -10.68800
