31
6ln3_ATP_model_38_chainB.pdb
N          3.18200       -3.02000        5.63300
C          2.70100       -4.26700        5.87900
N          2.78600       -4.78200        7.12700
C          2.30800       -6.02500        7.37500
N          1.74200       -6.81100        6.45300
C          1.64300       -6.32200        5.20000
N          1.13100       -6.86400        4.08300
C          1.26300       -5.95900        3.07200
N          1.85200       -4.85100        3.53100
C          2.10200       -5.04400        4.84200
C          0.55400       -8.20700        4.02300
O          0.63000       -8.71200        2.70100
C         -0.67300       -9.04100        2.27100
C         -0.77400       -8.84800        0.77900
O         -0.44300       -7.53400        0.46900
P         -1.11300       -6.79400       -0.80100
O         -1.35800       -7.76300       -1.89800
O         -0.24600       -5.64100       -1.12500
O         -2.50800       -6.18500       -0.21300
P         -4.00500       -6.76800       -0.10700
O         -4.07900       -8.15500       -0.66700
O         -4.43800       -6.65000        1.31900
O         -4.91000       -5.74200       -0.96800
P         -4.76000       -5.22600       -2.50500
O         -4.32100       -6.39700       -3.35100
O         -6.14300       -4.74100       -2.89800
O         -3.77700       -4.11700       -2.48300
C         -1.59700       -8.14000        3.06900
O         -2.93500       -8.60200        3.13600
C         -0.91200       -8.19000        4.40900
O         -1.24600       -9.40400        5.08900
