31
6ln3_ATP_model_40_chainB.pdb
N          5.73600        4.62000       -0.69300
C          6.93200        4.13700       -0.25400
N          7.98400        4.97800       -0.12000
C          9.17500        4.50100        0.31800
N          9.40000        3.21700        0.63200
C          8.36800        2.35700        0.50500
N          8.29000        1.03900        0.74200
C          7.02000        0.62900        0.46700
N          6.28800        1.67100        0.05800
C          7.09600        2.75400        0.06800
C          9.41900        0.22900        1.20100
O          9.22900       -1.12700        0.83200
C          9.28100       -1.91900        1.99400
C          8.40100       -3.13500        1.82200
O          7.11800       -2.72400        1.45700
P          5.82500       -3.55500        1.95700
O          6.10900       -5.01400        1.92400
O          4.66400       -3.06600        1.16300
O          5.65300       -2.99800        3.48200
P          5.80500       -3.65400        4.94300
O          6.45200       -4.99700        4.87900
O          6.51500       -2.64900        5.78500
O          4.28400       -3.76700        5.48200
P          3.11200       -4.84700        5.12400
O          3.75100       -6.21400        5.04500
O          2.13300       -4.75500        6.28200
O          2.50300       -4.40600        3.85300
C          8.84100       -1.00400        3.12300
O          9.24800       -1.43800        4.40400
C          9.54200        0.27000        2.70900
O         10.92100        0.21600        3.07900
