31
6ln3_ATP_model_25_chainB.pdb
N          5.51400        3.09200       -4.67400
C          4.90100        3.94600       -5.53900
N          5.55100        4.34600       -6.65700
C          4.94300        5.19900       -7.52000
N          3.70900        5.69400       -7.34500
C          3.03900        5.31000       -6.23800
N          1.80700        5.63100       -5.80100
C          1.58600        4.97100       -4.62700
N          2.66200        4.23700       -4.31300
C          3.57700        4.42600       -5.28700
C          0.91000        6.54600       -6.50800
O         -0.02300        7.12100       -5.60200
C         -1.32700        6.82700       -6.05500
C         -2.25900        6.71400       -4.87100
O         -1.75300        5.76800       -3.98400
P         -2.75000        4.85400       -3.09700
O         -3.95800        5.64000       -2.68700
O         -1.92600        4.27200       -2.00600
O         -3.13800        3.63400       -4.10500
P         -4.39000        3.34400       -5.07000
O         -5.33700        4.51700       -5.08800
O         -3.83000        2.96200       -6.40300
O         -5.10300        2.03500       -4.44500
P         -5.59600        1.69600       -2.92800
O         -6.04200        2.98800       -2.27900
O         -6.75300        0.72600       -3.09300
O         -4.43700        1.05900       -2.24900
C         -1.19400        5.54100       -6.85600
O         -2.25700        5.31600       -7.76400
C          0.10900        5.81800       -7.57100
O         -0.11200        6.68600       -8.68500
