43
6ln3_ATP_model_44_chainB_pH74.pdb
N          1.69000        4.84700       -1.80000
C          1.00300        5.90300       -1.28900
N          1.27300        7.15000       -1.73200
C          0.58800        8.20100       -1.22500
N         -0.36300        8.09900       -0.28900
C         -0.65100        6.86600        0.16900
N         -1.54000        6.45900        1.08500
C         -1.45500        5.10300        1.18700
N         -0.52100        4.64600        0.34900
C         -0.00500        5.71300       -0.29400
C         -2.41800        7.36400        1.82300
O         -2.78300        6.78500        3.06700
C         -4.18900        6.71600        3.13100
C         -4.60000        5.52700        3.97000
O         -3.98700        4.37800        3.46600
P         -4.78500        2.97400        3.44400
O         -5.56600        2.80800        4.70600
O         -3.79100        1.91300        3.11200
O         -5.75000        3.17000        2.14200
P         -7.34100        3.32100        1.95100
O         -8.00800        3.67500        3.25200
O         -7.54900        4.30900        0.84800
O         -7.83000        1.88300        1.40700
P         -7.96400        0.44800        2.18500
O         -8.73300        0.69700        3.47500
O         -8.74200       -0.43800        1.23000
O         -6.58700       -0.05200        2.40900
C         -4.65300        6.63800        1.68600
O         -6.00400        7.01900        1.49600
C         -3.69600        7.62200        1.05400
O         -4.13200        8.96300        1.29500
H          2.38200        4.99500       -2.48500
H          1.49600        3.93500       -1.48500
H          0.81400        9.14200       -1.58300
H         -2.02600        4.51800        1.81700
H         -1.88300        8.27900        1.96900
H         -4.64000        7.56300        3.60500
H         -5.66300        5.41200        3.93200
H         -4.29800        5.68100        4.98500
H         -4.63800        5.64800        1.28000
H         -6.13700        7.91800        1.83400
H         -3.60500        7.51000       -0.00600
H         -4.22700        9.10500        2.25000
