31
6ln3_ATP_model_22_chainB.pdb
N         -1.37700        5.73500        4.26300
C         -1.55800        6.96500        3.70700
N         -1.70200        8.04700        4.50600
C         -1.88300        9.27400        3.95500
N         -1.93800        9.50400        2.63700
C         -1.79800        8.44200        1.81800
N         -1.80400        8.36200        0.47800
C         -1.61100        7.05700        0.12900
N         -1.48600        6.30600        1.22800
C         -1.59900        7.13300        2.28900
C         -1.99300        9.51200       -0.39900
O         -2.51800        9.09400       -1.65200
C         -1.64100        9.52200       -2.66800
C         -1.68600        8.54600       -3.82400
O         -1.47300        7.25400       -3.33900
P         -0.53200        6.22200       -4.15900
O         -0.88100        6.25000       -5.60700
O         -0.62400        4.90500       -3.47300
O          0.94600        6.84700       -3.86500
P          2.11100        7.43800       -4.80800
O          1.55700        8.00000       -6.08200
O          2.85500        8.43400       -3.98000
O          3.09000        6.19500       -5.08800
P          3.04400        4.99200       -6.19100
O          1.86400        5.21100       -7.10200
O          4.36100        5.08600       -6.94500
O          2.94500        3.72800       -5.41500
C         -0.27300        9.62600       -2.00900
O          0.63100       10.47000       -2.69900
C         -0.66800       10.20200       -0.67100
O         -0.87300       11.61400       -0.77800
