31
6ln3_ATP_model_42_chainB.pdb
N          0.75600        2.67000       -5.84800
C         -0.36200        3.44000       -5.97200
N         -0.69100        3.94700       -7.18400
C         -1.79900        4.71700       -7.31100
N         -2.61600        5.02900       -6.29900
C         -2.31000        4.53300       -5.08100
N         -2.93000        4.66400       -3.89900
C         -2.23100        3.96100       -2.96200
N         -1.16800        3.38700       -3.53700
C         -1.19100        3.72100       -4.84500
C         -4.14500        5.45000       -3.71500
O         -4.26500        5.87300       -2.36700
C         -5.49800        5.41500       -1.86500
C         -5.37300        5.15800       -0.38300
O         -4.27600        4.33200       -0.16800
P         -4.30200        3.23900        1.02100
O         -4.98400        3.80300        2.21800
O         -2.90300        2.77100        1.19500
O         -5.13900        2.02400        0.33400
P         -6.61500        1.42700        0.54300
O         -7.46900        2.35000        1.36000
O         -7.14500        1.13000       -0.82200
O         -6.37600        0.02700        1.29800
P         -5.82400       -0.28400        2.80200
O         -6.39200        0.76200        3.73700
O         -6.34400       -1.67000        3.13300
O         -4.34000       -0.25100        2.72400
C         -5.82600        4.17300       -2.67400
O         -7.19300        3.81800       -2.65600
C         -5.37400        4.62700       -4.04000
O         -6.36400        5.46100       -4.64100
