43
6ln3_ATP_model_32_chainB_pH74.pdb
N         -1.45700       -5.23700        1.87500
C         -1.45800       -5.92800        0.70300
N         -2.03800       -7.14800        0.64500
C         -2.04100       -7.83600       -0.52300
N         -1.49200       -7.38900       -1.66000
C         -0.90700       -6.17700       -1.62800
N         -0.28900       -5.47900       -2.59200
C          0.12700       -4.29700       -2.05800
N         -0.21900       -4.23500       -0.76800
C         -0.85800       -5.38400       -0.47100
C         -0.11600       -5.96400       -3.96000
O          1.01700       -5.35400       -4.55800
C          0.60500       -4.70400       -5.73900
C          1.48500       -3.50600       -5.99200
O          1.48500       -2.68400       -4.86100
P          1.43000       -1.07700       -5.01700
O          2.32700       -0.64600       -6.13200
O          1.69700       -0.49200       -3.67900
O         -0.14700       -0.83900       -5.36800
P         -0.93600       -0.23400       -6.63600
O         -0.09000       -0.26700       -7.87200
O         -2.21700       -0.99200       -6.73700
O         -1.30900        1.27700       -6.22900
P         -0.41300        2.63500       -6.15300
O          0.88900        2.39000       -6.87700
O         -1.24600        3.69700       -6.84600
O         -0.23900        2.92800       -4.71200
C         -0.85700       -4.35800       -5.51400
O         -1.58200       -4.12700       -6.70800
C         -1.31900       -5.60700       -4.81100
O         -1.55900       -6.65100       -5.75900
H         -1.03600       -4.34800        1.92200
H         -1.87700       -5.62600        2.67600
H         -2.49500       -8.76300       -0.53700
H          0.63400       -3.55900       -2.57200
H          0.00500       -7.02600       -3.91000
H          0.69800       -5.30700       -6.61800
H          1.11000       -2.95800       -6.83100
H          2.48300       -3.83200       -6.19700
H         -1.00400       -3.44400       -4.97800
H         -1.51700       -4.90600       -7.28200
H         -2.22600       -5.47500       -4.25800
H         -0.75700       -6.80300       -6.28300
