31
6ln3_ATP_model_9_chainB.pdb
N         -4.35600        1.56500        2.25400
C         -4.74200        0.48400        2.98700
N         -6.04100        0.34800        3.34400
C         -6.42800       -0.72800        4.07400
N         -5.59700       -1.69700        4.48800
C         -4.29800       -1.58400        4.14400
N         -3.24700       -2.38000        4.40400
C         -2.14000       -1.83200        3.82800
N         -2.47400       -0.69600        3.20700
C         -3.79900       -0.51300        3.38500
C         -3.33600       -3.60900        5.19500
O         -2.07800       -3.89500        5.79100
C         -1.68500       -5.19000        5.39500
C         -0.17900       -5.27400        5.35000
O          0.31100       -4.27100        4.51900
P          1.55300       -4.56600        3.52800
O          2.53500       -5.47900        4.19200
O          2.05700       -3.23500        3.07600
O          0.81600       -5.27900        2.25400
P          0.80600       -6.78500        1.67500
O          1.27200       -7.77500        2.71600
O         -0.58300       -7.03700        1.17300
O          1.78700       -6.76600        0.39600
P          3.39800       -6.50900        0.29100
O          4.05800       -7.13100        1.51000
O          3.82500       -7.20300       -0.99000
O          3.58500       -5.03200        0.21100
C         -2.35900       -5.41800        4.05100
O         -2.47200       -6.78300        3.68600
C         -3.70500       -4.79700        4.33200
O         -4.52200       -5.69900        5.08500
