43
6ln3_ATP_model_13_chainB_pH74.pdb
N          4.29000        3.72500       -2.21300
C          4.35900        5.07800       -2.10800
N          4.78800        5.81000       -3.16000
C          4.85800        7.15800       -3.05800
N          4.52800        7.84600       -1.96000
C          4.09900        7.14000       -0.89700
N          3.70300        7.54300        0.31700
C          3.35000        6.44300        1.03900
N          3.51900        5.34400        0.29800
C          3.98300        5.74300       -0.90300
C          3.68000        8.93900        0.74300
O          3.77200        9.02300        2.15700
C          2.66000        9.74000        2.63600
C          2.29600        9.24300        4.01300
O          2.13000        7.85900        3.97600
P          0.96900        7.15800        4.85100
O          0.90800        7.78500        6.19700
O          1.19900        5.69300        4.79100
O         -0.34600        7.50600        3.95000
P         -1.75100        8.23100        4.26900
O         -1.66900        9.07800        5.49500
O         -2.11800        8.96200        3.02100
O         -2.78700        7.01700        4.46800
P         -3.19800        6.13700        5.77700
O         -2.33300        6.55800        6.93000
O         -4.66400        6.44500        6.02300
O         -2.98800        4.72500        5.37800
C          1.57100        9.52400        1.60400
O          0.54600       10.49600        1.64300
C          2.38900        9.61600        0.34000
O          2.64600       10.98200        0.02000
H          4.55300        3.28200       -3.05200
H          3.97700        3.18700       -1.45000
H          5.18700        7.68800       -3.88000
H          3.00400        6.45600        2.01100
H          4.51100        9.42200        0.27200
H          2.84100       10.78800        2.75200
H          1.38400        9.70400        4.32900
H          3.07700        9.49100        4.70100
H          1.02400        8.61400        1.73600
H          0.93300       11.37800        1.53100
H          1.91200        9.18100       -0.51300
H          3.08000       11.41400        0.77200
