31
6ln3_ATP_model_26_chainB.pdb
N          3.29200        2.37500        2.66600
C          4.62800        2.10500        2.67000
N          5.41700        2.65300        3.62400
C          6.74800        2.38600        3.62700
N          7.36100        1.59900        2.73000
C          6.59700        1.03800        1.76900
N          6.92200        0.21700        0.75400
C          5.78200       -0.07700        0.06300
N          4.74000        0.54900        0.62400
C          5.21100        1.24900        1.68100
C          8.28300       -0.24000        0.48600
O          8.42900       -0.58300       -0.88700
C          8.88200       -1.91600       -0.96500
C          8.37800       -2.55300       -2.23900
O          6.99600       -2.40900       -2.30100
P          6.06300       -3.59500       -2.88400
O          6.72100       -4.22800       -4.06400
O          4.71600       -3.01300       -3.09500
O          5.96100       -4.61700       -1.62000
P          6.57000       -6.06600       -1.29000
O          7.68700       -6.41000       -2.23600
O          6.95900       -6.04300        0.14900
O          5.34000       -7.09300       -1.43600
P          4.37600       -7.47200       -2.69900
O          5.16800       -7.27300       -3.97000
O          4.00900       -8.93100       -2.48600
O          3.19100       -6.58800       -2.59800
C          8.37300       -2.58800        0.30100
O          9.07300       -3.76500        0.64700
C          8.61400       -1.47700        1.29700
O          9.99200       -1.44200        1.67800
