43
6ln3_ATP_model_3_chainB_pH74.pdb
N         -5.20100       -0.61600       -1.75900
C         -5.69400        0.42000       -2.49000
N         -7.02400        0.68000       -2.47300
C         -7.51600        1.71600       -3.20100
N         -6.76800        2.52200       -3.96400
C         -5.44000        2.28300       -3.99800
N         -4.45500        2.91200       -4.65800
C         -3.27700        2.29300       -4.35700
N         -3.50100        1.27700       -3.51800
C         -4.83100        1.24300       -3.27800
C         -4.67200        4.05900       -5.53700
O         -3.64900        4.12700       -6.51400
C         -3.02000        5.38600       -6.40900
C         -1.57200        5.26100       -6.80600
O         -0.97500        4.26500       -6.04400
P          0.55100        4.41800       -5.54000
O          1.38600        5.02700       -6.61900
O          0.97300        3.09000       -5.03000
O          0.40400        5.40700       -4.26100
P          0.70400        6.96200       -4.01800
O          0.96000        7.66800       -5.32200
O         -0.44100        7.50200       -3.23500
O          2.00500        6.99300       -3.07600
P          3.51800        6.43600       -3.31400
O          3.81200        6.50800       -4.79500
O          4.41400        7.37200       -2.52500
O          3.55200        5.05800       -2.77300
C         -3.21800        5.81600       -4.96700
O         -3.07100        7.20700       -4.75800
C         -4.63800        5.35700       -4.75800
O         -5.54900        6.29300       -5.34000
H         -4.23600       -0.80900       -1.76800
H         -5.81000       -1.17300       -1.22100
H         -8.53200        1.89300       -3.16300
H         -2.35200        2.56800       -4.72200
H         -5.63100        3.93000       -5.99400
H         -3.43200        6.12600       -7.06400
H         -1.07200        6.19100       -6.63400
H         -1.50400        5.01000       -7.84400
H         -2.49500        5.41200       -4.28900
H         -3.68900        7.68700       -5.33100
H         -4.91300        5.25800       -3.72900
H         -5.33400        6.41300       -6.27800
