31
6ln3_ATP_model_8_chainB.pdb
N          1.48800        3.81100        5.58300
C          0.65800        4.05300        6.63600
N          0.55400        5.31000        7.12800
C         -0.27200        5.55300        8.17300
N         -1.01600        4.62000        8.78000
C         -0.92900        3.35800        8.30700
N         -1.54500        2.23000        8.69700
C         -1.13000        1.21600        7.89000
N         -0.25600        1.68200        6.99300
C         -0.10900        3.00400        7.22500
C         -2.49100        2.17000        9.80700
O         -2.54200        0.85400       10.33400
C         -3.87700        0.40300       10.27300
C         -3.89400       -1.09400       10.08800
O         -3.12100       -1.42700        8.98000
P         -3.55100       -2.65300        8.01600
O         -4.07800       -3.78700        8.83000
O         -2.39200       -2.93500        7.13300
O         -4.70700       -1.97300        7.09700
P         -6.30700       -2.08900        7.05400
O         -6.82400       -2.77800        8.28400
O         -6.83000       -0.71000        6.83900
O         -6.61500       -2.94100        5.72000
P         -6.33600       -4.51000        5.36600
O         -6.62500       -5.32200        6.61200
O         -7.30600       -4.83900        4.24700
O         -4.92700       -4.60400        4.91900
C         -4.51000        1.17000        9.12400
O         -5.92200        1.22000        9.18200
C         -3.89000        2.52700        9.34400
O         -4.57500        3.22500       10.38500
