31
6ln3_ATP_model_36_chainB.pdb
N         -3.37700        4.94800       -2.14200
C         -4.52100        5.50400       -1.65900
N         -5.60400        5.60200       -2.46200
C         -6.74400        6.15600       -1.98400
N         -6.88700        6.63100       -0.74000
C         -5.82200        6.54300        0.08200
N         -5.66800        6.92500        1.35800
C         -4.40000        6.61100        1.74300
N         -3.74700        6.03900        0.72700
C         -4.59900        5.98300       -0.31600
C         -6.72100        7.57100        2.14200
O         -6.15700        8.33900        3.19100
C         -6.68300        7.87800        4.41400
C         -5.66100        8.07200        5.50400
O         -4.47700        7.44700        5.12500
P         -3.53600        6.74000        6.22700
O         -3.55900        7.51100        7.50400
O         -2.21100        6.53300        5.58500
O         -4.22900        5.27600        6.38600
P         -5.21200        4.62600        7.47900
O         -5.72600        5.67500        8.42400
O         -6.26400        3.87400        6.73600
O         -4.29100        3.54100        8.23900
P         -3.06200        3.75200        9.29500
O         -3.52000        4.74000       10.35300
O         -2.81700        2.37300        9.88400
O         -1.89700        4.23200        8.51600
C         -7.05200        6.42500        4.16700
O         -7.99500        5.90900        5.08800
C         -7.62400        6.53600        2.77800
O         -8.96400        7.03700        2.83600
