43
6ln3_ATP_model_35_chainB_pH74.pdb
N          0.39400        1.96400       -5.87600
C          1.64300        2.11600       -6.40700
N          1.79100        2.72300       -7.60900
C          3.03500        2.87500       -8.13900
N          4.16000        2.45200       -7.54500
C          4.03800        1.84300       -6.34700
N          4.96800        1.32700       -5.52600
C          4.33500        0.82700       -4.42300
N          3.01500        1.02100       -4.53400
C          2.80000        1.64500       -5.71200
C          6.40200        1.31600       -5.82400
O          7.03200        0.24900       -5.13700
C          8.05600        0.78400       -4.32700
C          8.22500       -0.07000       -3.09200
O          6.99600       -0.19700       -2.45300
P          6.91500       -0.18000       -0.83900
O          8.06600       -0.92700       -0.25400
O          5.55100       -0.65900       -0.47300
O          6.98300        1.41700       -0.49600
P          8.15800        2.37800        0.05200
O          9.49700        1.69500       -0.04800
O          8.06300        3.67100       -0.69900
O          7.76700        2.69700        1.58300
P          7.57000        1.68700        2.84700
O          8.74500        0.72600        2.87000
O          7.56900        2.58700        4.07500
O          6.26200        1.01400        2.66300
C          7.62800        2.21000       -4.02500
O          8.69200        3.05800       -3.63100
C          7.06300        2.60300       -5.36600
O          8.12200        2.94300       -6.26500
H         -0.39300        2.29400       -6.36700
H          0.28100        1.52500       -5.00200
H          3.11800        3.34500       -9.05400
H          4.80300        0.36900       -3.62500
H          6.50800        1.20600       -6.88300
H          9.01500        0.79000       -4.80100
H          8.92700        0.39300       -2.43000
H          8.58800       -1.03700       -3.37000
H          6.95500        2.29100       -3.19700
H          9.37400        3.06200       -4.32000
H          6.40500        3.44600       -5.32700
H          8.74300        2.20100       -6.32900
