75
./ArbAlignOutput/Wat_25_cluster_2243804_2nd_lowest-aligned_to-Wat_25_cluster_2243803_1st_lowest.xyz
O 9.148096 7.27986002 -14.8053513
H 8.3767366 6.73421001 -14.9288197
H 10.044032 9.44125938 -12.6867762
O 14.316034 10.1399908 -12.6211557
H 12.490506 6.77922106 -17.2656384
H 14.96775 9.68048668 -13.163126
O 15.397932 12.6869211 -17.0426407
H 16.293239 12.9911299 -16.92033
H 15.178184 9.47259045 -17.3149357
O 15.436605 4.79715824 -15.084013
H 14.904918 4.53405142 -16.7252522
H 16.260294 5.29907608 -15.095787
O 9.70193 11.1885195 -13.3239021
H 9.2898845 11.8905897 -12.8272686
H 10.640007 11.4296036 -13.4240675
O 11.244742 13.0584679 -17.9360294
H 10.499576 13.5816364 -18.2196884
H 12.360884 13.3826532 -16.408493
O 13.738012 10.0575962 -20.6576519
H 15.388486 11.7396288 -16.8192406
H 14.639002 8.97498512 -19.4716663
O 12.760063 7.98151588 -11.5526581
H 12.684681 7.74019957 -10.633316
H 13.434034 6.96860456 -12.9531279
O 12.516154 9.84482765 -15.7814283
H 12.621529 12.3768263 -14.3096275
H 13.425879 9.94334126 -16.0891876
O 12.91901 6.64260769 -18.1229572
H 14.2287 7.82438517 -18.5127239
H 11.860763 7.87019825 -19.1802101
O 17.660884 6.59862089 -15.4582481
H 16.550132 7.86737823 -14.6712027
H 18.598335 6.43150663 -15.4155169
O 10.288223 8.52682686 -12.4981327
H 11.858709 8.17628765 -11.8666468
H 8.9285078 8.16440296 -15.1521664
O 10.601971 10.4253759 -17.6568737
H 10.771453 9.81585407 -18.3893852
H 12.183766 9.11116409 -20.0354652
O 13.001583 13.4216785 -15.6877985
H 13.86363 13.2749176 -16.0960636
H 14.322402 12.5498838 -18.5915298
O 14.949907 8.4317379 -18.7371941
H 16.283268 7.19020844 -18.3651638
H 13.906565 10.253933 -21.5751305
O 12.325233 11.6862211 -13.6970339
H 13.088704 11.274025 -13.266614
H 12.409236 10.4327145 -15.0234413
O 16.773567 6.43300533 -18.018116
H 17.413961 6.57814455 -16.4005966
H 16.148551 5.69749784 -18.0296192
O 15.806238 8.41453362 -14.3894014
H 12.02526 8.152215 -15.657999
H 13.819866 9.44522572 -12.1689224
O 11.466926 8.65896797 -19.5734329
H 11.287179 10.2455692 -16.994976
H 9.2752609 10.0625858 -16.4058437
O 14.685921 4.48675966 -17.6734543
H 13.442707 5.83540916 -18.0446949
H 14.661706 3.56193471 -17.9038486
O 13.66011 12.3749218 -19.2710876
H 12.819191 12.6708021 -18.9015198
H 13.70664 10.9106817 -20.1884747
O 11.8086 7.20644617 -15.6539145
H 9.876831 7.99721479 -13.1911945
H 10.879742 7.12654495 -15.4064741
O 15.194822 10.0304461 -16.524004
H 15.080028 7.80213356 -14.202137
H 15.474827 9.48698521 -15.7744379
O 8.7446565 9.81137371 -15.6380873
H 10.933035 12.1395569 -17.868
H 9.0193433 10.3794727 -14.9071836
O 13.75156 6.60858297 -13.7901573
H 14.823165 5.31069279 -14.5402937
H 13.043646 6.73861504 -14.4377537
