90
./ArbAlignOutput/Wat_30_cluster_4221240_lowest_15-aligned_to-Wat_30_cluster_4221227_lowest_2.xyz
O -6.3366249 1.5606356 3.13353357
H -5.2220826 3.376464 5.80291417
H -5.6526949 1.28712 2.50956185
O -6.5159951 -0.48183443 4.90534691
H -6.5300195 0.275912 4.29270979
H -7.3791619 -0.88416468 4.86566342
O -4.7711535 0.3634551 6.91735783
H -3.9596835 -0.0555502 2.35862863
H -3.92128 0.0622607 6.56340407
O -2.7265493 2.809925 2.93282258
H -2.1295342 4.6274749 3.03683063
H -4.2417883 3.5248552 3.71657006
O -1.0896326 1.6998917 4.88154558
H -2.046179 2.9957086 7.377155
H -1.8647309 0.1977756 5.50238806
O -0.6516909 -1.73073119 7.79896419
H -1.0007421 -1.55833532 8.69345295
H -1.1790624 1.5083848 12.1457141
O -1.9926724 5.5510352 3.28204799
H -4.6125649 7.3246226 3.74279931
H -3.4329537 7.1269589 5.95593341
O -4.01273 -1.20106257 3.67926243
H -4.8830246 -1.12563365 4.08948528
H -3.3733027 -1.09588178 4.39602619
O -4.0305164 0.6477104 1.68821156
H -3.1190643 2.11328 2.39206294
H -3.9550065 0.2259568 0.83658167
O -2.7754314 7.392076 6.60975192
H -1.3319831 6.3836039 6.12983742
H -1.4247362 5.5548937 4.06443861
O -1.6142747 -1.06179532 10.2186327
H -0.3528682 -2.63604833 7.78903214
H -2.4699443 -0.64344157 10.044283
O -5.2016668 4.2627566 9.25054692
H -5.0777576 3.1101089 10.4948365
H -2.1000067 2.3742822 3.52714179
O -3.7767063 0.4984659 9.51095968
H -4.2540234 0.4179158 8.67445223
H -4.2713725 1.0915112 10.0906679
O 1.57157395 1.9635755 5.72503437
H 2.38710952 1.9169119 5.23434026
H -0.14331 1.7788719 5.0498007
O -5.0667879 3.8782357 4.08058862
H -6.0704977 2.4366137 3.44272351
H -4.9555974 4.8354362 4.13798829
O 0.72985386 0.695226 8.08053729
H -0.7964487 1.6006284 8.61860631
H 1.37620775 1.4393458 9.63793631
O -4.3102781 6.5806124 4.25809139
H -3.4704613 6.2885549 3.8575116
H -3.0429931 7.0091846 7.45458724
O -4.9598251 2.4139666 11.1678182
H -5.7579748 2.3955267 11.6884663
H -5.4545933 0.0240359 6.32585637
O -1.5913998 2.1171932 8.79935155
H -2.2952048 1.5185993 9.07866587
H -1.5358774 2.3326741 5.4675769
O -0.8097708 5.612815 5.86676588
H 1.40672109 4.4749494 7.89974958
H -3.2876457 7.0242112 9.87658212
O -0.5274541 0.7857582 12.1190698
H -0.362478 0.537344 13.0254631
H 0.37926248 -0.18809348 7.91357348
O -5.0948684 3.1267667 6.72821309
H -5.0327206 2.1626803 6.77285045
H -5.253535 3.912378 8.35032469
O 1.38762267 4.3267704 6.94849192
H 1.54615007 2.8425002 6.14961993
H 2.17829393 5.0249733 10.2356584
O -3.2555881 6.3190776 9.2331927
H -1.3474357 4.8467356 6.12078803
H -4.6099826 5.0233149 9.21660987
O -2.3628788 -0.54717787 5.8689053
H -1.1795336 -0.50509638 10.8754377
H -1.7910138 -1.00264693 6.49714443
O 1.45240364 4.5709546 9.81608619
H 1.51480157 3.6349498 10.0810573
H -1.4556957 3.6818326 9.64224597
O -2.3076912 2.8476168 12.1344878
H -3.2309914 2.7145125 11.8874814
H -1.977597 3.5567471 11.5682473
O -1.3313592 4.5411354 10.0745933
H 0.6985659 4.8977828 6.57888089
H -0.3822206 4.7132591 10.0434903
O -2.3391106 3.4366457 6.56622804
H -2.5406752 5.7234337 9.51364621
H -3.303003 3.4389112 6.58681805
O 1.48615438 1.9408824 10.4574547
H 0.85477389 1.560982 11.0803839
H 1.06480119 1.0492997 7.24702125
