149
1ln1_DLP_conf47.pdb
C         -0.88100       -0.80700       -1.12200
C         -0.07100       -2.01300       -1.43300
C         -0.78700       -2.62400       -2.69200
C         -1.55900        2.39100       -2.22200
C         -2.24300        3.74700       -2.50400
C         -0.35600        3.90300       -3.97400
C         -1.62800        5.79400       -3.46200
C         -2.53400        4.13500       -4.87600
C         -0.95200       -4.34500       -4.11800
C         -0.18100       -5.13700       -5.07500
C          0.41200       -6.42700       -4.73400
C          1.38800       -6.65200       -3.68700
C          1.17900       -6.57900       -2.24200
C          0.16700       -7.58900       -1.67200
C          0.18500       -7.46900       -0.20000
C         -0.23200       -6.30100        0.55700
C         -1.64800       -5.89000        0.66100
C         -2.44100       -5.55900       -0.52700
C         -3.90100       -5.16500       -0.21400
C         -3.91500       -3.93400        0.64200
C         -5.34700       -3.52300        0.96900
C         -5.34200       -2.26900        1.79100
C         -6.79500       -1.90700        2.11900
C         -6.87500       -0.64500        2.92100
C         -6.14200       -0.69000        4.22900
C         -6.66000       -1.74400        5.15600
C          2.21000       -2.59200       -1.51400
C          3.18500       -1.99600       -0.47900
C          3.69400       -0.66300       -0.89400
C          4.74500       -0.09300        0.07600
C          5.07600        1.33200       -0.32100
C          6.19600        1.92000        0.49500
C          6.39200        3.40300        0.15800
C          5.18200        4.19500        0.64900
C          5.18300        5.64400        0.31200
C          3.98900        6.38100        0.92700
C          4.05200        6.38600        2.41100
C          2.90200        7.06000        3.08400
C          1.55400        6.40900        2.84100
C          0.46600        7.12900        3.60000
C         -0.90100        6.54900        3.45400
C         -0.88800        5.10400        3.97300
C         -2.22700        4.44200        3.90800
C         -2.15400        3.00600        4.43500
N         -1.73200        4.34400       -3.69600
O          1.18700       -1.80900       -1.80200
O         -0.32800       -3.87400       -2.98900
O         -2.03600       -5.22300       -3.67300
O          2.95000       -2.95000       -2.61300
O          0.62100        1.74800        0.62800
O         -1.26700        2.05500        1.49300
O         -0.40100        0.01600       -0.16100
O         -2.14400        1.92800       -1.04700
P         -0.87900        1.56200       -0.05600
H         -1.87000       -1.19900       -0.73300
H         -1.16200       -0.26900       -2.04800
H         -0.22100       -2.85300       -0.69400
H         -1.87200       -2.70300       -2.43000
H         -0.69500       -1.89300       -3.49800
H         -1.91900        1.73600       -3.04800
H         -0.50000        2.58100       -2.18300
H         -1.99300        4.44900       -1.64700
H         -3.33700        3.63800       -2.47100
H          0.30300        4.18600       -3.13100
H         -0.30200        2.82600       -4.21600
H          0.02000        4.46200       -4.86100
H         -2.63800        6.20000       -3.19100
H         -0.87600        5.99400       -2.66300
H         -1.30800        6.32900       -4.37200
H         -2.43700        3.06700       -5.19400
H         -3.56800        4.44100       -4.70600
H         -2.04800        4.75000       -5.68800
H         -1.56600       -3.53900       -4.59200
H          0.59700       -4.43600       -5.54700
H         -0.87800       -5.29200       -5.97700
H          0.89200       -6.81200       -5.71000
H         -0.49300       -7.14600       -4.62500
H          2.01600       -7.61300       -3.93100
H          2.24000       -5.88200       -3.89700
H          1.02200       -5.60700       -1.79700
H          2.19500       -6.92700       -1.78200
H          0.65300       -8.58700       -1.91800
H         -0.77500       -7.60200       -2.19600
H         -0.35600       -8.38900        0.25800
H          1.27000       -7.76600        0.10200
H          0.38700       -5.37300        0.27800
H          0.11900       -6.48500        1.63900
H         -1.69100       -4.94500        1.32700
H         -2.23700       -6.64800        1.28400
H         -2.45400       -6.40900       -1.24400
H         -1.96900       -4.68900       -1.05000
H         -4.36200       -6.01700        0.30000
H         -4.41700       -4.99400       -1.18000
H         -3.33800       -3.11600        0.18800
H         -3.46700       -4.18400        1.62600
H         -5.71000       -4.34200        1.65900
H         -5.94400       -3.45400        0.05300
H         -4.82700       -1.41300        1.32400
H         -4.85100       -2.44900        2.77600
H         -7.28100       -1.69900        1.13900
H         -7.25900       -2.73200        2.65900
H         -7.97200       -0.52400        3.18000
H         -6.57400        0.26600        2.37600
H         -5.04900       -0.80800        4.08700
H         -6.32500        0.29900        4.72300
H         -7.68000       -2.10200        4.88300
H         -5.91400       -2.56600        5.20600
H         -6.76600       -1.35100        6.20600
H          1.90800       -3.55800       -0.97600
H          2.70900       -1.92000        0.51500
H          3.99200       -2.74700       -0.39000
H          2.93700        0.06400       -1.17700
H          4.30200       -0.82800       -1.83700
H          4.40900       -0.11900        1.12300
H          5.65900       -0.71700        0.01300
H          5.48300        1.24700       -1.37700
H          4.18800        1.95400       -0.42000
H          6.01000        1.83600        1.58400
H          7.16100        1.40100        0.30900
H          6.54400        3.59500       -0.89900
H          7.32200        3.71200        0.67600
H          5.30100        4.15000        1.78500
H          4.23500        3.69000        0.47400
H          5.09800        5.76700       -0.78200
H          6.10500        6.15000        0.63900
H          4.06500        7.43100        0.59000
H          3.03300        5.97900        0.53700
H          4.95500        7.05100        2.66400
H          4.26600        5.40100        2.88600
H          2.81100        8.09800        2.66200
H          3.04500        7.14900        4.18700
H          1.60400        5.38000        3.19600
H          1.29400        6.38400        1.75500
H          0.40500        8.19200        3.21900
H          0.74800        7.24700        4.68300
H         -1.27100        6.60500        2.42600
H         -1.65100        7.05800        4.11800
H         -0.62600        5.19700        5.05900
H         -0.15800        4.47300        3.44300
H         -2.97000        4.93900        4.60600
H         -2.71800        4.42900        2.93900
H         -2.26800        2.94300        5.52300
H         -1.16600        2.57400        4.16900
H         -2.96400        2.37900        3.99700
H         -2.76200       -4.67400       -3.31200
H          3.93400       -2.91000       -2.46700
H          0.98700        2.61100        0.31000
H         -1.66700        2.95300        1.39100
H         -0.98000        0.66700        1.00000
