149
1ln1_DLP_conf17.pdb
C         -3.68800       -0.08000       -0.67900
C         -2.40100       -0.15500        0.04700
C         -1.27100        0.61200       -0.54300
C         -5.65400       -4.49100       -1.40400
C         -5.89600       -5.34700       -2.59800
C         -4.31900       -4.41400       -4.18400
C         -5.05400       -6.61700       -4.38200
C         -3.63800       -6.04000       -2.60600
C         -1.63700        0.81600       -2.90000
C         -0.67600        1.71600       -3.74500
C          0.53900        0.80100       -4.03400
C          1.56500        1.51000       -4.81500
C          2.83300        0.83200       -5.14200
C          3.81500        0.51900       -4.09000
C          3.30800       -0.27600       -2.95800
C          4.37800       -0.67600       -1.93200
C          5.46500       -1.53300       -2.48900
C          6.44800       -1.90400       -1.37300
C          7.13000       -0.72000       -0.77100
C          7.96600       -1.21200        0.40400
C          9.00000       -2.21900        0.04500
C          9.74500       -2.63400        1.30400
C          8.84800       -3.25100        2.33000
C          9.60400       -3.66800        3.60200
C          8.51600       -4.26000        4.49900
C          9.05400       -4.72200        5.82200
C         -2.16100       -1.01300        2.14700
C         -3.20300       -1.39200        3.12800
C         -3.48600       -0.43600        4.22300
C         -3.94300        0.93300        3.94900
C         -5.17800        1.09500        3.13100
C         -5.60200        2.58100        3.10700
C         -6.76100        2.81900        2.21100
C         -6.50300        2.59700        0.77900
C         -5.61400        3.48600        0.03000
C         -4.23200        3.75200        0.48700
C         -3.56300        4.64400       -0.58200
C         -2.12100        4.98500       -0.18600
C         -1.99300        5.73400        1.07100
C         -0.63600        6.03700        1.53800
C          0.33400        6.82000        0.77700
C          0.88400        6.33000       -0.49900
C          1.59100        4.99100       -0.35700
C          2.74900        5.10500        0.61500
N         -4.73300       -5.56800       -3.42000
O         -2.52000        0.13100        1.44100
O         -0.92400        0.46900       -1.82700
O         -1.86300       -0.27100       -3.79400
O         -0.97300       -0.76700        2.89400
O         -3.43000       -3.83800       -0.13700
O         -5.87900       -2.63300        0.38500
O         -4.63500       -0.94300       -0.07300
O         -5.20400       -3.23800       -1.82600
P         -4.48000       -2.52700       -0.50500
H         -4.10900        0.91300       -0.86100
H         -3.51200       -0.54500       -1.69500
H         -2.08100       -1.23700        0.01700
H         -0.33100        0.39700        0.07400
H         -1.45600        1.74000       -0.38500
H         -6.64600       -4.39300       -0.87800
H         -4.98600       -4.92700       -0.63000
H         -6.73400       -4.90000       -3.17200
H         -6.23800       -6.35000       -2.25200
H         -3.67700       -3.73000       -3.58400
H         -3.67100       -4.80800       -5.00000
H         -5.18200       -3.90400       -4.64600
H         -6.05200       -6.36400       -4.80300
H         -5.04500       -7.61500       -3.91900
H         -4.29400       -6.53900       -5.19100
H         -4.04500       -6.41000       -1.65500
H         -3.08900       -6.85600       -3.16400
H         -2.94300       -5.19600       -2.44500
H         -2.59500        1.30400       -2.74600
H         -1.15700        2.03900       -4.66800
H         -0.36000        2.56600       -3.14300
H          0.12900       -0.02300       -4.73900
H          0.80800        0.26400       -3.15800
H          1.77700        2.48800       -4.27100
H          1.08100        1.83700       -5.79000
H          3.39000        1.44300       -5.93600
H          2.59100       -0.13300       -5.70500
H          4.23000        1.51500       -3.71500
H          4.75300        0.05100       -4.54600
H          2.66200        0.42500       -2.31500
H          2.72000       -1.15300       -3.19200
H          4.78600        0.28600       -1.53200
H          3.82200       -1.19000       -1.11700
H          5.09800       -2.48500       -2.91000
H          6.03600       -1.01100       -3.27600
H          5.90800       -2.50900       -0.61900
H          7.20000       -2.54300       -1.85500
H          6.47800        0.09100       -0.43100
H          7.87400       -0.28900       -1.48400
H          8.49500       -0.33600        0.83800
H          7.23300       -1.62500        1.15100
H          8.60600       -3.11200       -0.48500
H          9.75100       -1.71100       -0.60800
H         10.54100       -3.38200        1.03600
H         10.29900       -1.77400        1.70800
H          8.38900       -4.17600        1.91400
H          8.03600       -2.55700        2.62900
H         10.29500       -4.48300        3.36800
H         10.06600       -2.79800        4.07000
H          7.69400       -3.52600        4.64800
H          8.08300       -5.14800        3.96600
H          8.93300       -5.80800        5.94100
H          8.59700       -4.17600        6.68000
H         10.14300       -4.48100        5.88800
H         -1.88600       -1.86700        1.48600
H         -4.15400       -1.55100        2.52400
H         -2.99900       -2.42300        3.56200
H         -4.23300       -0.87700        4.95700
H         -2.56700       -0.33600        4.88200
H         -4.08600        1.45800        4.93700
H         -3.11300        1.48900        3.42100
H         -5.09000        0.70800        2.11200
H         -6.04500        0.57800        3.60700
H         -5.89200        2.77700        4.18600
H         -4.71000        3.13500        2.91500
H         -7.55400        2.07100        2.53200
H         -7.21900        3.79300        2.46500
H         -7.50400        2.60800        0.22400
H         -6.20400        1.51300        0.65400
H         -6.09100        4.49200       -0.16700
H         -5.51600        3.06200       -1.02100
H         -4.25500        4.50500        1.36000
H         -3.60200        2.89200        0.67600
H         -3.53400        4.15500       -1.55100
H         -4.10900        5.60300       -0.68300
H         -1.52400        4.07600       -0.29200
H         -1.81700        5.65400       -1.06300
H         -2.56700        5.16100        1.86900
H         -2.60900        6.69100        0.99100
H         -0.12300        5.05800        1.88300
H         -0.73600        6.55200        2.56700
H         -0.12500        7.84500        0.53100
H          1.20000        7.14000        1.45400
H          1.74000        7.04600       -0.75300
H          0.21800        6.30900       -1.33200
H          2.00300        4.72800       -1.33600
H          0.88200        4.24200        0.01200
H          3.40100        5.96900        0.38700
H          3.36100        4.19100        0.50800
H          2.38600        5.16000        1.67000
H         -2.56600        0.00700       -4.41900
H         -0.58000       -1.64200        3.08800
H         -2.56600       -3.55700       -0.49600
H         -5.91500       -3.33100        1.06200
H         -4.98700       -1.98900       -1.67700
