149
1ln1_DLP_conf31.pdb
C          1.21400       -2.87800        4.06000
C          2.40200       -1.98000        4.14900
C          3.41100       -2.45700        3.05400
C         -1.95500       -4.43500        0.88900
C         -2.71700       -5.30900       -0.07200
C         -0.71100       -6.29200       -0.95700
C         -1.85300       -4.61600       -2.19400
C         -2.78300       -6.74700       -1.89100
C          3.45800       -2.26200        0.69600
C          2.37900       -2.43000       -0.33600
C          2.84900       -2.74800       -1.71400
C          1.72000       -2.84000       -2.71800
C          1.02200       -1.50500       -2.80100
C         -0.12000       -1.49900       -3.83800
C         -0.64800       -0.09300       -3.79000
C         -1.74400        0.29400       -4.65400
C         -3.06900       -0.31900       -4.65200
C         -3.91800       -0.26200       -3.43000
C         -3.47200       -0.90600       -2.19200
C         -4.55800       -0.67600       -1.10000
C         -4.03100       -1.37300        0.10800
C         -4.82000       -1.27400        1.34200
C         -6.18400       -1.78200        1.46700
C         -7.28100       -1.24900        0.63600
C         -7.44300        0.26100        0.82000
C         -8.59400        0.69100       -0.08000
C          2.51800        0.17700        4.98500
C          1.48500        1.26600        5.03800
C          1.67700        2.21800        6.17700
C          0.61000        3.31900        6.06100
C          0.81000        4.04600        4.73700
C          2.16400        4.68400        4.66400
C          2.34800        5.31500        3.28100
C          3.68100        5.99300        3.20200
C          3.94800        6.55300        1.82600
C          3.99300        5.46000        0.79100
C          4.29400        6.07900       -0.56400
C          4.38500        4.99200       -1.62500
C          3.17500        4.19500       -1.83400
C          1.92400        4.76500       -2.36100
C          1.88500        5.25800       -3.74600
C          2.69100        6.37100       -4.24100
C          2.47100        7.72400       -3.65600
C          1.01800        8.18900       -3.89200
N         -1.99200       -5.68300       -1.25300
O          2.23100       -0.65700        3.90600
O          2.87600       -1.98200        1.88600
O          4.22300       -1.06600        0.29000
O          3.79500        0.78700        4.69900
O          0.73400       -5.43500        1.93600
O         -0.06300       -5.80400        3.82000
O          0.60300       -3.01200        2.85000
O         -0.81600       -5.04700        1.34000
P         -0.33600       -4.44700        2.82400
H          0.42900       -2.48800        4.79300
H          1.47900       -3.89100        4.48800
H          2.88200       -2.11400        5.17100
H          3.54800       -3.53800        3.13100
H          4.35600       -1.94300        3.31000
H         -2.60200       -4.23500        1.76400
H         -1.67000       -3.46600        0.43100
H         -3.03000       -6.25500        0.43700
H         -3.65700       -4.82500       -0.39400
H          0.02500       -5.50000       -0.77800
H         -0.84000       -6.91800       -0.04300
H         -0.44000       -6.92500       -1.83400
H         -0.97900       -4.85800       -2.83900
H         -1.62400       -3.63400       -1.71300
H         -2.75000       -4.49800       -2.83200
H         -2.64400       -7.70000       -1.34100
H         -3.85500       -6.48400       -1.82200
H         -2.43600       -6.90100       -2.93700
H          4.23900       -3.00000        0.69100
H          1.61900       -3.17800       -0.02400
H          1.83600       -1.43200       -0.34100
H          3.52600       -3.60800       -1.78000
H          3.46400       -1.86100       -2.05700
H          1.05100       -3.65800       -2.39200
H          2.18800       -3.10800       -3.69400
H          0.56400       -1.32600       -1.78400
H          1.76700       -0.73100       -2.99600
H         -0.79600       -2.28700       -3.54000
H          0.37700       -1.63800       -4.83300
H          0.28600        0.51700       -4.12100
H         -0.72100        0.21700       -2.73500
H         -1.93400        1.41400       -4.45300
H         -1.35000        0.37600       -5.73000
H         -3.10200       -1.34200       -5.12400
H         -3.68300        0.26800       -5.42400
H         -4.22900        0.80100       -3.24600
H         -4.90300       -0.76300       -3.71900
H         -3.41100       -2.01100       -2.30500
H         -2.55700       -0.58800       -1.71100
H         -5.50700       -1.01200       -1.50100
H         -4.56700        0.41000       -0.94800
H         -2.97900       -0.95800        0.27900
H         -3.78700       -2.46700       -0.14100
H         -4.19800       -1.79500        2.16400
H         -4.77800       -0.18400        1.71700
H         -6.49700       -1.60000        2.55300
H         -6.15300       -2.91500        1.35600
H         -7.34400       -1.48500       -0.40600
H         -8.27100       -1.67700        1.07200
H         -7.65800        0.49900        1.87300
H         -6.52200        0.73300        0.47600
H         -8.76200        1.79400       -0.01000
H         -8.37100        0.47500       -1.13700
H         -9.53900        0.19300        0.21200
H          2.68900       -0.38200        5.89600
H          1.49900        1.79700        4.05000
H          0.47300        0.79000        5.07900
H          1.42600        1.71300        7.14700
H          2.67700        2.64500        6.27600
H          0.67800        4.02800        6.89000
H         -0.37400        2.84900        6.02300
H          0.52600        3.45900        3.87800
H          0.07200        4.91300        4.75400
H          2.98000        3.97800        4.87800
H          2.20900        5.49300        5.45100
H          2.23400        4.50300        2.55600
H          1.52500        6.05000        3.14300
H          4.47900        5.28400        3.45700
H          3.69200        6.79800        3.97400
H          3.17500        7.32500        1.55300
H          4.91100        7.10300        1.88600
H          4.86200        4.79300        1.08500
H          3.10800        4.82500        0.77100
H          5.30900        6.51200       -0.47700
H          3.60300        6.89000       -0.80500
H          4.83800        5.41500       -2.51100
H          5.15800        4.26900       -1.16500
H          2.94200        3.53900       -0.91600
H          3.47100        3.37100       -2.57900
H          1.16000        3.91600       -2.31800
H          1.47900        5.49000       -1.61900
H          0.79200        5.37500       -4.10500
H          2.18500        4.35200       -4.39500
H          2.36400        6.50500       -5.34900
H          3.76200        6.10500       -4.38400
H          2.65800        7.88100       -2.61300
H          3.10900        8.42900       -4.25100
H          0.95300        8.42900       -4.97700
H          0.32400        7.39100       -3.60900
H          0.83900        9.09400       -3.27300
H          4.69600       -0.74400        1.10500
H          4.14800        1.16900        5.52900
H          1.66200       -5.14000        1.99300
H          0.63600       -5.64200        4.46100
H         -1.40800       -5.30400        3.08000
