149
1ln1_DLP_conf34.pdb
C         -1.97900       -0.35400       -1.44000
C         -3.10800       -0.46200       -2.51600
C         -2.86700        0.71100       -3.48100
C         -2.29000        3.22200        0.10400
C         -3.56100        3.93500        0.35700
C         -5.66800        4.73500       -0.15500
C         -5.27800        2.44100       -0.43600
C         -4.34000        4.06900       -1.92200
C         -1.13000        1.51100       -4.81600
C          0.20300        2.04900       -4.90800
C          0.93300        2.88300       -3.96500
C          0.37700        4.26200       -3.67500
C          1.29900        5.14600       -2.96900
C          1.85500        5.06800       -1.65300
C          0.98400        5.29900       -0.42900
C          1.91500        5.25200        0.78400
C          1.39500        5.65900        2.06800
C          0.31200        5.06400        2.83400
C          0.52800        3.64800        3.26000
C         -0.57800        3.16600        4.16100
C         -1.95000        3.19900        3.61500
C         -3.02700        2.74700        4.61200
C         -2.77500        1.32100        5.03200
C         -3.82000        0.84900        6.02800
C         -3.58600       -0.58300        6.45000
C         -3.65600       -1.52800        5.28200
C         -3.77700       -2.66100       -2.84300
C         -3.06700       -3.81700       -2.12000
C         -2.01400       -4.40800       -2.99200
C         -1.26000       -5.49200       -2.27700
C         -0.53000       -4.99500       -1.07300
C          0.27100       -6.00500       -0.32600
C          1.32200       -6.67000       -1.18000
C          2.29600       -5.69100       -1.80800
C          3.31800       -6.44300       -2.63000
C          4.17800       -7.38300       -1.91000
C          5.15600       -7.00400       -0.88000
C          6.34100       -6.20300       -1.24300
C          6.16400       -4.82400       -1.69500
C          5.60300       -3.94300       -0.61000
C          6.53800       -3.87200        0.59400
C          5.86600       -2.92400        1.57700
C          6.71300       -2.77000        2.80500
C          6.02500       -1.80700        3.77900
N         -4.64300        3.73000       -0.54200
O         -2.83800       -1.67200       -3.13600
O         -1.50400        0.62600       -3.85700
O         -1.24100        0.67300       -6.03600
O         -4.30700       -3.19100       -3.99900
O          0.75500        0.83800       -0.40100
O          0.38200        0.54100        1.25500
O         -2.14200        0.82200       -0.74800
O         -2.31500        1.85600        0.09400
P         -0.80400        1.11700        0.21600
H         -1.04300       -0.43000       -2.03300
H         -2.09500       -1.18200       -0.71200
H         -4.04600       -0.45800       -1.99400
H         -3.55500        0.62900       -4.31900
H         -2.95300        1.61000       -2.87300
H         -1.89400        3.55400       -0.88100
H         -1.54400        3.62300        0.84900
H         -3.97200        3.74300        1.39100
H         -3.34200        5.03200        0.37100
H         -5.15500        5.67900        0.14900
H         -6.26700        4.36600        0.68400
H         -6.30300        4.94300       -1.02800
H         -6.21100        2.56900        0.17800
H         -4.60900        1.72700        0.04200
H         -5.63600        2.10900       -1.43900
H         -5.10300        3.55400       -2.55300
H         -3.32100        3.87500       -2.23900
H         -4.51300        5.16900       -2.11100
H         -1.97700        2.24000       -5.03800
H          0.91200        1.14200       -5.11100
H          0.26800        2.56900       -5.94200
H          2.02200        3.01100       -4.22700
H          0.96400        2.36900       -2.97600
H         -0.61100        4.17200       -3.13500
H          0.11400        4.70500       -4.64600
H          0.80300        6.20200       -3.05200
H          2.17200        5.31500       -3.72900
H          2.66500        5.86700       -1.55800
H          2.44100        4.11300       -1.52800
H          0.55100        6.31300       -0.47600
H          0.23300        4.50600       -0.35000
H          2.31100        4.18700        0.88800
H          2.81400        5.87600        0.53300
H          1.09500        6.78600        1.93300
H          2.27900        5.81500        2.81200
H         -0.70100        5.22200        2.38400
H          0.23200        5.65300        3.81000
H          1.44900        3.65800        3.91300
H          0.72300        2.92700        2.47200
H         -0.57100        3.70700        5.13200
H         -0.31800        2.09800        4.40100
H         -1.99300        2.37900        2.82700
H         -2.26600        4.12000        3.12000
H         -3.03200        3.40400        5.50600
H         -3.99400        2.77700        4.07500
H         -1.80900        1.31800        5.58600
H         -2.78700        0.64300        4.16200
H         -4.81900        0.88800        5.52900
H         -3.87200        1.47300        6.92400
H         -2.53000       -0.63700        6.84400
H         -4.31400       -0.85200        7.22900
H         -4.37100       -1.12100        4.50900
H         -4.09100       -2.51400        5.55500
H         -2.69100       -1.71900        4.78600
H         -4.51600       -2.24800       -2.15500
H         -2.70600       -3.45300       -1.14600
H         -3.85500       -4.59100       -1.95400
H         -1.29900       -3.65100       -3.38000
H         -2.52500       -4.83300       -3.88700
H         -0.54000       -5.96200       -3.00200
H         -1.95700       -6.33800       -2.02600
H          0.05000       -4.07900       -1.30900
H         -1.31000       -4.62700       -0.33800
H          0.80100       -5.46800        0.48800
H         -0.36900       -6.79300        0.07200
H          1.92800       -7.28600       -0.45500
H          0.91000       -7.37000       -1.91500
H          1.75700       -5.02400       -2.52300
H          2.77000       -5.04500       -1.07900
H          3.84200       -5.81300       -3.36500
H          2.67300       -7.10800       -3.35000
H          4.68300       -8.06800       -2.68500
H          3.47500       -8.14200       -1.40700
H          5.49300       -7.97300       -0.39200
H          4.58400       -6.49300       -0.04100
H          7.05300       -6.15900       -0.34000
H          6.99200       -6.79900       -1.99300
H          7.22000       -4.42800       -1.94100
H          5.59900       -4.66400       -2.63200
H          4.63700       -4.27000       -0.20200
H          5.49000       -2.89400       -1.00400
H          6.55400       -4.86400        1.10900
H          7.56000       -3.57900        0.33600
H          4.88900       -3.36300        1.89600
H          5.70400       -1.95000        1.08000
H          7.69900       -2.30600        2.58500
H          6.81700       -3.74100        3.33800
H          5.80900       -0.87100        3.18900
H          6.66500       -1.58100        4.65300
H          5.06200       -2.18200        4.12500
H         -0.50500        0.01000       -5.96100
H         -5.26500       -3.38300       -3.89300
H          0.64200        0.41200       -1.28500
H         -0.05400        0.04900        1.97400
H          0.13600        2.12800        0.32600
