149
1ln1_DLP_conf6.pdb
C         -3.84100        0.25600        0.23400
C         -2.87700       -0.56000       -0.70900
C         -1.50700       -0.04400       -0.57600
C         -5.71800        3.05100       -2.89600
C         -5.41600        2.89800       -4.38000
C         -3.97500        1.44100       -5.52000
C         -3.23400        2.34500       -3.51600
C         -3.45600        3.70900       -5.45600
C          0.23400        0.42600        0.86000
C          0.64000        1.45600        1.83000
C          0.15400        2.83900        1.71300
C         -1.29500        3.10600        1.72200
C         -1.50300        4.62500        1.60100
C         -0.82700        5.16800        0.34900
C         -1.38400        4.46700       -0.83700
C         -0.70500        4.89000       -2.13700
C          0.76200        4.57600       -2.09700
C          1.42600        4.94900       -3.39200
C          2.94500        4.59900       -3.29200
C          3.65400        4.93000       -4.54000
C          5.08500        4.56500       -4.57600
C          6.08700        5.12300       -3.67500
C          6.04100        4.89900       -2.21300
C          7.28100        5.58100       -1.54900
C          7.26900        5.37400       -0.06900
C          6.04500        5.94100        0.61300
C         -4.01100       -2.53500       -0.81300
C         -4.80700       -3.36700        0.13100
C         -4.01300       -4.53100        0.73100
C         -4.88400       -5.18300        1.75700
C         -5.09900       -4.41300        3.00100
C         -4.02400       -4.36000        4.01700
C         -2.66800       -3.95200        3.60000
C         -1.72200       -3.91000        4.82500
C         -0.34400       -3.54000        4.35400
C          0.26500       -4.49000        3.37800
C          1.65300       -4.11400        2.96100
C          2.66400       -4.09400        4.06200
C          2.82300       -5.47500        4.69600
C          3.24100       -6.48400        3.64600
C          4.53100       -6.16200        2.96400
C          4.85400       -7.20400        1.89600
C          6.15100       -6.89200        1.18500
C          6.08900       -5.55400        0.50700
N         -4.04800        2.63100       -4.68000
O         -2.96400       -1.86100       -0.15900
O         -1.08300        0.08400        0.74900
O          0.88100       -0.77400        1.30700
O         -3.41900       -3.46000       -1.72100
O         -6.52500        1.92100        0.77900
O         -5.98300        0.61400       -1.54200
O         -3.91800        1.55600       -0.27200
O         -5.37800        1.87300       -2.25700
P         -5.54000        1.94400       -0.57700
H         -4.81400       -0.25700        0.31200
H         -3.40500        0.31700        1.24500
H         -3.41800       -0.45600       -1.66100
H         -0.80200       -0.68400       -1.16200
H         -1.42800        0.96500       -1.06300
H         -6.83600        3.16600       -2.78000
H         -5.29200        3.95000       -2.45500
H         -5.70500        3.85500       -4.88600
H         -6.05100        2.08000       -4.80600
H         -4.51600        1.55400       -6.47400
H         -4.44100        0.55100       -5.00200
H         -2.92100        1.14400       -5.72900
H         -3.41700        1.27400       -3.28100
H         -2.17000        2.39000       -3.89200
H         -3.39800        3.00900       -2.66900
H         -3.88600        4.69000       -5.18800
H         -3.63900        3.50500       -6.51400
H         -2.35700        3.70100       -5.27400
H          0.71700        0.56100       -0.16100
H          1.77300        1.48600        1.80000
H          0.45600        1.02200        2.86400
H          0.63700        3.33700        0.81500
H          0.60300        3.42600        2.57600
H         -1.89000        2.52900        1.03100
H         -1.71800        2.87600        2.74800
H         -1.07800        5.08900        2.51000
H         -2.57600        4.85400        1.60200
H          0.24900        5.24100        0.44300
H         -1.16300        6.26500        0.32800
H         -1.41400        3.37100       -0.75100
H         -2.46600        4.77600       -0.94100
H         -0.90900        5.96300       -2.31600
H         -1.19800        4.33500       -2.95100
H          0.86600        3.45200       -2.01600
H          1.29600        4.96100       -1.22100
H          1.31600        6.01500       -3.63200
H          1.04500        4.35700       -4.24000
H          3.07200        3.55300       -2.99200
H          3.25800        5.30100       -2.48700
H          3.53200        6.01900       -4.81400
H          3.13400        4.40400       -5.41000
H          5.45100        4.58300       -5.66700
H          5.08800        3.41100       -4.40700
H          6.13300        6.25200       -3.90500
H          7.10400        4.75500       -4.03900
H          5.19900        5.35200       -1.67600
H          6.19700        3.82700       -1.95800
H          8.13800        5.10000       -2.04000
H          7.21400        6.66800       -1.74600
H          7.34300        4.32700        0.24500
H          8.14200        5.92800        0.34100
H          6.21000        5.75400        1.71800
H          6.01500        7.04800        0.52200
H          5.10600        5.44200        0.35500
H         -4.53900       -1.84300       -1.45700
H         -5.61400       -3.87500       -0.47900
H         -5.34200       -2.79900        0.89500
H         -3.06600       -4.21100        1.10800
H         -3.90400       -5.26600       -0.12400
H         -5.87700       -5.48900        1.28300
H         -4.43800       -6.18100        2.04400
H         -6.03900       -4.86500        3.49000
H         -5.43900       -3.36900        2.77000
H         -3.96700       -5.31700        4.61600
H         -4.35700       -3.57400        4.79300
H         -2.55900       -3.00000        3.09000
H         -2.20800       -4.76600        2.97300
H         -1.73700       -4.88600        5.32700
H         -2.08700       -3.12900        5.51100
H         -0.36300       -2.53400        3.82400
H          0.33900       -3.34200        5.21900
H          0.31300       -5.54200        3.79000
H         -0.34700       -4.47400        2.43200
H          1.95700       -4.88100        2.19000
H          1.67100       -3.13300        2.45300
H          2.38300       -3.40700        4.88700
H          3.64600       -3.74600        3.69800
H          1.85700       -5.80600        5.10400
H          3.63500       -5.40100        5.43000
H          2.41600       -6.71700        2.94400
H          3.42000       -7.43600        4.22200
H          4.54700       -5.15300        2.53800
H          5.38000       -6.20400        3.70400
H          4.01600       -7.24400        1.14000
H          4.91400       -8.21400        2.34400
H          6.31700       -7.67000        0.38700
H          7.00800       -6.99600        1.89700
H          6.77300       -4.84200        1.00900
H          6.35400       -5.67200       -0.57900
H          5.06700       -5.15000        0.57600
H          0.25200       -1.49100        1.47800
H         -4.20800       -4.00200       -2.05000
H         -7.32600        1.35200        0.56000
H         -6.52400        0.00300       -0.94800
H         -6.07800        3.19700       -0.35300
