149
1ln1_DLP_conf46.pdb
C         -1.98700        1.81900       -0.89700
C         -2.12200        2.68600        0.31400
C         -2.79400        1.84300        1.41600
C         -4.50900       -1.50300       -3.58100
C         -4.74300       -2.99500       -3.56700
C         -4.23300       -4.91300       -4.78900
C         -2.80900       -4.34200       -3.01900
C         -2.79900       -3.09000       -4.98200
C         -4.52800        0.48000        2.05000
C         -4.54400       -0.99200        1.55600
C         -3.10600       -1.39000        1.24200
C         -2.94100       -2.77000        0.73600
C         -3.36700       -3.87100        1.67200
C         -2.57300       -3.80500        2.96500
C         -1.08600       -3.88800        2.69700
C         -0.41100       -3.84800        4.10100
C          1.04200       -3.87300        3.85500
C          2.01700       -3.95200        4.93900
C          2.07800       -2.97900        6.03900
C          0.90300       -3.02200        6.93300
C          0.93800       -2.04600        8.09300
C          0.99700       -0.60600        7.70100
C         -0.19100       -0.19100        6.86500
C         -0.18900        1.26100        6.46400
C          1.03000        1.60000        5.64500
C          1.01900        3.07200        5.23900
C         -0.72500        4.46700        0.96800
C          0.64100        4.97900        0.51600
C          1.71200        4.22200        1.29500
C          3.07300        4.73600        0.98900
C          4.13300        3.92200        1.73500
C          4.18800        2.49000        1.23500
C          4.70400        2.42100       -0.16800
C          4.65800        0.99600       -0.66000
C          5.29700        0.81500       -1.98700
C          4.81500        1.65500       -3.11500
C          5.63200        1.28400       -4.33500
C          5.35000        2.09500       -5.54700
C          3.96900        2.10800       -6.08100
C          3.41300        0.76500       -6.47700
C          2.02400        0.93800       -7.09900
C          1.03900        1.57500       -6.19100
C          0.77100        0.82000       -4.93100
C          0.17800       -0.55000       -5.15700
N         -3.66600       -3.78300       -4.05200
O         -0.93500        3.14600        0.79200
O         -3.98900        1.27200        1.01000
O         -5.82700        0.86300        2.27500
O         -0.75800        4.77000        2.39100
O         -1.76900       -0.23200       -2.52400
O         -3.16100        0.98500       -4.47100
O         -3.22700        1.35400       -1.33100
O         -3.42500       -1.11600       -2.80700
P         -3.19800        0.58400       -2.81700
H         -1.47600        2.32900       -1.73700
H         -1.38400        0.94400       -0.59600
H         -2.81500        3.55700        0.11500
H         -2.07400        1.13100        1.86200
H         -2.99900        2.58100        2.25500
H         -4.38800       -1.10500       -4.60700
H         -5.41200       -1.01400       -3.17200
H         -5.71800       -3.21700       -4.05800
H         -4.89800       -3.26100       -2.47900
H         -3.48900       -5.36400       -5.46000
H         -5.04500       -4.50000       -5.43800
H         -4.63400       -5.66900       -4.08500
H         -1.99300       -4.91400       -3.52500
H         -3.35600       -5.07300       -2.38900
H         -2.38700       -3.55300       -2.36100
H         -1.98300       -2.53900       -4.44500
H         -3.35100       -2.46800       -5.69900
H         -2.29900       -3.87400       -5.58500
H         -3.87600        0.55300        2.93800
H         -5.10900       -1.00500        0.62000
H         -5.02500       -1.64800        2.29200
H         -2.76300       -0.68000        0.47300
H         -2.50400       -1.18900        2.16400
H         -1.87700       -2.99300        0.43400
H         -3.61300       -2.87300       -0.16100
H         -3.37100       -4.85400        1.20400
H         -4.42800       -3.63400        1.97900
H         -2.77700       -2.86400        3.48400
H         -2.83400       -4.64300        3.61200
H         -0.84100       -4.82900        2.20600
H         -0.71100       -2.97500        2.16000
H         -0.68800       -2.81100        4.42400
H         -0.85500       -4.65700        4.66500
H          1.22200       -4.79300        3.19200
H          1.25300       -3.02200        3.13200
H          3.04600       -4.02900        4.42100
H          1.96200       -5.02400        5.37000
H          2.97800       -3.27100        6.67500
H          2.35000       -1.94500        5.70800
H          0.96400       -4.04100        7.46000
H         -0.08500       -3.00800        6.50900
H         -0.06400       -2.18500        8.60300
H          1.67500       -2.28600        8.86200
H          0.87600       -0.02800        8.66700
H          1.95400       -0.28500        7.29700
H         -0.20700       -0.75900        5.88800
H         -1.15300       -0.46300        7.35200
H         -0.12800        1.90900        7.37500
H         -1.07800        1.50200        5.85400
H          1.04800        1.00600        4.68500
H          1.99500        1.37800        6.16500
H          0.62600        3.21900        4.20900
H          0.39800        3.67800        5.93200
H          2.05700        3.47900        5.26500
H         -1.52700        5.07900        0.58500
H          0.72100        6.04200        0.81100
H          0.76500        4.84400       -0.57100
H          1.51800        4.49900        2.38400
H          1.56100        3.14700        1.25400
H          3.35000        4.75000       -0.07100
H          3.22000        5.78700        1.37200
H          5.07200        4.47800        1.58400
H          3.86100        3.89300        2.80800
H          3.20300        2.04800        1.30500
H          4.86900        1.90900        1.88500
H          4.16900        3.11700       -0.80900
H          5.78300        2.76100       -0.14000
H          5.13300        0.35500        0.10900
H          3.56700        0.69700       -0.66800
H          6.40800        0.91100       -1.88300
H          5.09600       -0.26300       -2.28400
H          4.96000        2.74700       -2.95000
H          3.77100        1.42400       -3.36000
H          5.50500        0.19400       -4.58300
H          6.70000        1.47300       -4.06200
H          5.73800        3.15000       -5.39000
H          6.02100        1.69200       -6.37200
H          3.26900        2.65800       -5.40100
H          3.96100        2.72200       -7.03000
H          4.03500        0.25400       -7.23000
H          3.31300        0.09300       -5.59400
H          1.67300       -0.05800       -7.42100
H          2.16700        1.53100       -8.03800
H          0.07000        1.65100       -6.76800
H          1.37700        2.60000       -5.91300
H          1.70100        0.73500       -4.31900
H          0.08000        1.44400       -4.32000
H          0.41800       -0.95900       -6.14600
H          0.45800       -1.28700       -4.37300
H         -0.95200       -0.49800       -5.13500
H         -6.14100        1.64700        1.78900
H         -0.46300        5.71600        2.39900
H         -0.99700        0.42500       -2.51300
H         -4.11200        0.90400       -4.75700
H         -3.07600       -0.40100       -1.85600
