149
1ln1_DLP_conf27.pdb
C          0.34000        3.90000        0.74000
C         -1.06500        4.61400        0.71700
C         -1.25500        4.94300       -0.71400
C          3.60600        2.92300       -1.19000
C          3.23600        2.27900       -2.51200
C          3.67900       -0.04200       -2.87500
C          5.48300        1.39400       -2.31600
C          4.44900        1.55900       -4.39100
C         -2.42900        5.53000       -2.49300
C         -3.19500        4.34600       -3.11600
C         -3.14900        4.36500       -4.61000
C         -3.80600        3.08300       -5.16100
C         -5.22300        3.00700       -4.73700
C         -5.87700        1.69700       -5.16000
C         -5.08800        0.53100       -4.51400
C         -5.09400        0.61700       -3.05500
C         -4.33200       -0.38200       -2.27400
C         -2.88400       -0.46700       -2.36900
C         -2.07100       -0.75600       -3.53200
C         -2.02000       -1.99600       -4.29600
C         -3.09200       -2.64700       -5.02300
C         -4.29500       -3.16500       -4.34200
C         -3.97200       -4.13500       -3.21700
C         -3.23300       -5.32500       -3.71000
C         -2.84300       -6.28500       -2.58400
C         -2.10400       -7.46900       -3.15600
C         -2.42600        3.74200        2.42000
C         -3.02700        2.45100        2.82900
C         -2.19300        1.24300        2.66300
C         -0.91500        1.07200        3.35300
C         -0.95200        1.07500        4.86800
C          0.48700        0.77100        5.29300
C          0.64200        0.73500        6.77900
C          2.06800        0.33300        7.17100
C          2.35000       -1.07400        6.63100
C          1.40900       -2.06800        7.21800
C          1.61500       -3.45400        6.71000
C          1.41500       -3.53800        5.21400
C          1.52000       -4.89700        4.63600
C          2.84500       -5.60900        4.80200
C          3.97800       -4.89900        4.14800
C          5.24800       -5.64200        4.19700
C          5.87100       -6.01300        5.47900
C          5.15900       -6.94100        6.38500
N          4.19900        1.31500       -2.96100
O         -2.02100        3.72200        1.13200
O         -2.52100        5.40100       -1.08900
O         -2.89100        6.73500       -2.87600
O         -3.68400        4.57700        2.28200
O          4.04600        5.23700        1.51300
O          3.08400        3.14800        1.54500
O          1.18100        4.90600        0.28400
O          2.56400        3.82600       -0.90400
P          2.78400        4.53400        0.61700
H          0.35500        3.08700       -0.00400
H          0.62400        3.64100        1.75800
H         -0.88100        5.43000        1.40000
H         -1.06400        4.02500       -1.35300
H         -0.46400        5.65600       -1.09800
H          3.65300        2.16500       -0.39100
H          4.57700        3.42800       -1.32700
H          3.05500        3.04400       -3.29000
H          2.25900        1.72400       -2.40200
H          3.30800       -0.37000       -3.86200
H          2.84300       -0.00200       -2.11700
H          4.46600       -0.75300       -2.54300
H          5.39000        1.55800       -1.24300
H          5.98100        0.40700       -2.52400
H          6.08200        2.16800       -2.84800
H          3.52200        1.97200       -4.82000
H          4.73100        0.60800       -4.89300
H          5.23400        2.33000       -4.44200
H         -1.34700        5.38200       -2.80900
H         -2.80700        3.43800       -2.66000
H         -4.27200        4.56200       -2.82900
H         -3.65900        5.20400       -5.09200
H         -2.09700        4.30200       -4.98300
H         -3.14800        2.25600       -4.84300
H         -3.74100        3.15100       -6.27100
H         -5.48900        3.22500       -3.72200
H         -5.76900        3.78500       -5.35800
H         -6.90100        1.62800       -4.80100
H         -5.84900        1.52100       -6.24200
H         -5.72900       -0.36100       -4.80200
H         -4.17500        0.41400       -5.07000
H         -6.18500        0.47700       -2.72700
H         -4.90600        1.67100       -2.66800
H         -4.81300       -1.36800       -2.26700
H         -4.51400       -0.09200       -1.13200
H         -2.40500        0.48900       -1.85100
H         -2.51300       -1.23100       -1.55400
H         -2.15100        0.09500       -4.28800
H         -0.93800       -0.50800       -3.20800
H         -1.40600       -2.78500       -3.69100
H         -1.19800       -1.80000       -5.11700
H         -2.68400       -3.41200       -5.77500
H         -3.49800       -1.85900       -5.76600
H         -4.77400       -3.88100       -5.13100
H         -5.10900       -2.50900       -4.11400
H         -3.52200       -3.64600       -2.33700
H         -4.98900       -4.49000       -2.86900
H         -2.32400       -5.07400       -4.27800
H         -3.89300       -5.90700       -4.42000
H         -3.76300       -6.57500       -2.06100
H         -2.12100       -5.76400       -1.88800
H         -2.28000       -8.38400       -2.54200
H         -2.55300       -7.68100       -4.16600
H         -1.04200       -7.26100       -3.29200
H         -1.89600        4.27000        3.18200
H         -3.92700        2.28900        2.14200
H         -3.45100        2.49200        3.87900
H         -2.00900        1.11000        1.54200
H         -2.83900        0.33500        2.87900
H         -0.13000        1.81900        3.09200
H         -0.44800        0.08800        3.04000
H         -1.21900        2.10100        5.18600
H         -1.64000        0.29400        5.23500
H          1.17800        1.55100        4.89400
H          0.78400       -0.15900        4.78500
H         -0.10100        0.11700        7.29900
H          0.50200        1.76700        7.19600
H          2.77800        1.01200        6.70000
H          2.09200        0.27000        8.26500
H          2.42400       -1.08300        5.52700
H          3.38000       -1.33000        6.98900
H          1.54100       -2.06900        8.32800
H          0.33600       -1.81000        7.04900
H          2.60200       -3.84200        7.01700
H          0.84400       -4.10300        7.18800
H          2.14800       -2.89100        4.66900
H          0.42100       -3.12200        4.99800
H          0.73100       -5.54100        5.11500
H          1.28600       -4.80800        3.53700
H          3.09200       -5.69800        5.88800
H          2.74800       -6.62800        4.39000
H          3.66500       -4.76400        3.06200
H          4.06700       -3.84000        4.51000
H          5.15400       -6.58100        3.54100
H          6.02900       -5.03300        3.62600
H          6.22000       -5.08800        6.04100
H          6.85600       -6.52000        5.21200
H          4.70400       -6.49000        7.28200
H          5.92200       -7.65500        6.81100
H          4.46200       -7.57200        5.78400
H         -2.68600        7.04300       -3.77400
H         -4.17200        4.00900        1.63200
H          4.52600        5.81200        0.89500
H          2.51100        2.37900        1.25500
H          2.74000        4.62300        2.00100
