149
1ln1_DLP_conf23.pdb
C         -4.07600       -1.39900        3.44300
C         -3.56200       -0.71000        2.09800
C         -4.49700       -1.17600        1.06200
C         -2.75000       -5.70600        3.42000
C         -2.54800       -6.82300        2.45000
C         -2.45800       -8.72200        3.87400
C         -3.21000       -8.97000        1.69800
C         -4.58100       -7.83600        3.19200
C         -3.48500       -0.54300       -0.99400
C         -3.64500        0.70900       -1.77800
C         -2.61500        1.09100       -2.75900
C         -1.24700        1.35200       -2.15900
C         -0.28000        1.80200       -3.16200
C          0.12000        1.01400       -4.32200
C          0.78800       -0.28000       -4.19700
C          0.09700       -1.43800       -3.57300
C          1.01300       -2.65100       -3.51000
C          1.53200       -3.08200       -4.87400
C          0.52300       -3.51100       -5.84400
C          1.03800       -3.83700       -7.19200
C          2.10000       -4.85000       -7.27300
C          3.46300       -4.56300       -6.81200
C          4.33300       -5.81600       -6.96800
C          3.88600       -6.98000       -6.16200
C          4.87500       -8.11100       -6.42300
C          6.27700       -7.70900       -6.02400
C         -2.24200        0.98000        2.80800
C         -2.15000        2.04800        3.84600
C         -0.71000        2.18300        4.22800
C         -0.47400        3.35600        5.15600
C         -0.68600        4.58800        4.35000
C         -0.44600        5.91600        5.07400
C         -0.57700        6.92700        3.90600
C         -0.37900        8.30600        4.37300
C         -0.34700        9.25900        3.21200
C          0.92800        9.25200        2.47400
C          1.51800        7.98800        2.01500
C          2.81100        8.36400        1.21500
C          3.52400        7.08300        0.95300
C          2.68300        6.07900        0.24600
C          3.56800        4.83900        0.09600
C          2.87600        3.69000       -0.57200
C          3.90900        2.55200       -0.60600
C          3.31600        1.34200       -1.25200
N         -3.19700       -8.03400        2.83600
O         -3.55700        0.65200        2.40000
O         -4.55700       -0.66300       -0.15200
O         -3.62400       -1.66300       -1.93000
O         -1.63900        1.61700        1.64700
O         -5.73000       -3.94500        5.20700
O         -3.30500       -3.37600        5.65500
O         -4.02800       -2.73500        3.11400
O         -4.05900       -5.33400        3.61600
P         -4.26000       -3.82900        4.34000
H         -5.05800       -0.98600        3.66800
H         -3.36400       -1.14600        4.22700
H         -2.55000       -1.09500        2.07900
H         -4.32400       -2.30800        0.97600
H         -5.54400       -1.07000        1.52600
H         -2.23900       -5.89400        4.39500
H         -2.19000       -4.81900        3.00500
H         -1.45900       -7.03000        2.33400
H         -2.97300       -6.50000        1.45900
H         -1.38500       -8.68200        3.59500
H         -2.76300       -9.80900        3.85200
H         -2.63400       -8.30900        4.87200
H         -2.18500       -9.06700        1.29200
H         -3.49600       -9.95500        2.10000
H         -3.94600       -8.64100        0.91800
H         -4.68300       -7.50300        4.24800
H         -5.16800       -8.79900        3.07700
H         -5.09100       -7.12900        2.50900
H         -2.55300       -0.78400       -0.51900
H         -4.65400        0.62900       -2.28900
H         -3.80300        1.59100       -1.09200
H         -2.54900        0.41600       -3.64100
H         -2.93900        2.07400       -3.20800
H         -1.45500        2.26900       -1.48800
H         -0.94100        0.60900       -1.41500
H          0.64000        2.23100       -2.63000
H         -0.71300        2.77900       -3.58800
H         -0.73600        0.92100       -5.07000
H          0.83300        1.67700       -4.92900
H          1.02700       -0.62200       -5.26100
H          1.83400       -0.15200       -3.78200
H         -0.20200       -1.28600       -2.51700
H         -0.77500       -1.72700       -4.18700
H          0.38300       -3.48300       -3.14700
H          1.86100       -2.53900       -2.83900
H          2.08300       -4.04000       -4.57500
H          2.23000       -2.35300       -5.28400
H         -0.37400       -2.81900       -5.89500
H          0.02500       -4.46900       -5.45800
H          1.43400       -2.85000       -7.63600
H          0.15300       -4.12500       -7.85000
H          1.70500       -5.84300       -6.86400
H          2.19100       -5.11300       -8.38800
H          3.69100       -4.02000       -5.92200
H          3.92500       -3.87300       -7.64000
H          4.24500       -6.09300       -8.05500
H          5.37600       -5.50600       -6.80300
H          3.84200       -6.74900       -5.08000
H          2.91900       -7.35800       -6.51300
H          4.81900       -8.45500       -7.47100
H          4.61800       -8.99900       -5.78000
H          6.79900       -7.25100       -6.91200
H          6.24500       -6.98200       -5.19800
H          6.91100       -8.55800       -5.70700
H         -1.63200        0.11800        2.97900
H         -2.53700        3.02100        3.45000
H         -2.74100        1.79800        4.76400
H         -0.11200        2.31600        3.28200
H         -0.31100        1.27700        4.72300
H         -1.21900        3.34900        5.98500
H          0.57700        3.35400        5.55200
H         -0.06300        4.62100        3.43600
H         -1.77800        4.64500        4.05300
H         -1.30900        6.08900        5.73300
H          0.54000        5.97500        5.53800
H         -0.05700        6.51100        3.07400
H         -1.72800        6.80300        3.65600
H          0.57500        8.36000        4.96000
H         -1.21600        8.65000        5.04400
H         -0.61200       10.29000        3.59400
H         -1.17600        8.93300        2.51500
H          1.75300        9.78300        3.07100
H          0.76900        9.90000        1.55100
H          1.91700        7.33700        2.80500
H          0.84100        7.47400        1.29400
H          3.40000        9.06400        1.81000
H          2.51700        8.86100        0.28300
H          4.46900        7.28200        0.36600
H          3.92600        6.64000        1.91800
H          1.82400        5.80400        0.90500
H          2.39000        6.45200       -0.74600
H          3.97100        4.56900        1.10000
H          4.45200        5.18600       -0.50700
H          2.67300        3.95400       -1.63000
H          1.99300        3.40100        0.00900
H          4.21700        2.34600        0.43200
H          4.76500        2.92900       -1.21200
H          4.13000        0.60800       -1.48500
H          2.53500        0.89200       -0.60500
H          2.85900        1.60600       -2.20700
H         -4.56800       -1.61800       -2.23100
H         -0.82700        1.14500        1.41900
H         -6.07600       -3.00300        5.19400
H         -3.44400       -4.07600        6.36200
H         -2.95800       -3.42500        4.09900
