149
1ln1_DLP_conf8.pdb
C          1.67300       -1.22700       -0.00100
C          2.70700       -0.86200       -1.10200
C          2.10300       -1.20000       -2.39100
C          0.29400        2.63500        0.31900
C          1.03300        3.93600        0.30300
C          1.33900        6.01300       -0.71000
C         -0.41300        4.58200       -1.47000
C          1.84600        4.06800       -1.91400
C          0.51300       -1.17700       -3.91400
C          0.01400       -0.18700       -4.88100
C         -1.29700        0.47600       -4.50400
C         -1.61400        1.43200       -5.63000
C         -2.94200        2.14300       -5.46100
C         -3.21200        3.08100       -6.60800
C         -4.55100        3.74100       -6.49100
C         -4.77100        4.56600       -5.26500
C         -3.76500        5.69100       -5.18900
C         -4.00300        6.56600       -3.97600
C         -3.92900        5.81800       -2.66900
C         -4.18200        6.82900       -1.57800
C         -4.15900        6.26400       -0.20600
C         -5.18800        5.19000        0.05500
C         -6.56700        5.73300       -0.12800
C         -7.65600        4.74500        0.10700
C         -7.62500        3.55500       -0.79900
C         -7.75500        3.93900       -2.25800
C          4.26000        0.64000       -0.33900
C          4.26600        1.21600        1.03900
C          5.67800        1.34900        1.56400
C          6.40100        0.02900        1.59500
C          5.78200       -1.03800        2.39100
C          5.60300       -0.82800        3.85300
C          4.91200       -2.10500        4.35600
C          4.66000       -2.12500        5.82100
C          3.93200       -3.43300        6.19600
C          4.72300       -4.65100        5.81500
C          3.97900       -5.94100        6.18100
C          2.65100       -6.01100        5.49200
C          1.87500       -7.28500        5.77500
C          2.66700       -8.50500        5.31700
C          2.96300       -8.40100        3.82400
C          3.74100       -9.61100        3.33100
C          4.05800       -9.50300        1.86200
C          2.80500       -9.39400        1.03900
N          0.93200        4.64500       -0.96200
O          2.95800        0.49100       -0.84800
O          0.80400       -0.69100       -2.62300
O         -0.40800       -2.24400       -3.73900
O          4.96600        1.44900       -1.19500
O          0.91300        0.07600        2.68100
O         -1.05800       -0.95300        1.33700
O          0.54800       -0.42200       -0.16300
O          0.41600        1.95600        1.55900
P          0.03800        0.32100        1.25900
H          1.45000       -2.30400       -0.05400
H          2.11700       -0.99100        0.98100
H          3.56300       -1.52100       -0.87100
H          2.68800       -0.89600       -3.28500
H          2.00200       -2.30700       -2.48000
H         -0.80700        2.76000        0.20200
H          0.59800        1.93100       -0.47700
H          0.68500        4.57100        1.12700
H          2.10800        3.73600        0.44800
H          0.52300        6.53100       -0.19400
H          2.21600        5.94900       -0.00300
H          1.71500        6.52900       -1.61900
H         -0.70600        3.52700       -1.64700
H         -0.42800        5.14000       -2.44700
H         -1.13400        5.13600       -0.83300
H          1.31900        3.60400       -2.77400
H          2.53500        4.84000       -2.31000
H          2.46700        3.27700       -1.44800
H          1.42000       -1.68200       -4.27800
H          0.70900        0.60300       -5.16400
H         -0.21500       -0.73900       -5.83700
H         -1.28400        0.95200       -3.52500
H         -2.14600       -0.26100       -4.47500
H         -1.53100        0.93200       -6.61000
H         -0.83500        2.23600       -5.62600
H         -3.71100        1.32100       -5.52600
H         -3.00200        2.66600       -4.50900
H         -3.12900        2.56700       -7.59400
H         -2.40700        3.86400       -6.61300
H         -4.73600        4.39200       -7.40200
H         -5.37300        2.96400       -6.50400
H         -5.81200        4.95200       -5.31900
H         -4.69600        3.92500       -4.35100
H         -3.93200        6.31900       -6.09700
H         -2.74600        5.31200       -5.22200
H         -4.88400        7.20100       -4.06500
H         -3.12100        7.27200       -3.95400
H         -4.58800        4.93900       -2.60200
H         -2.90000        5.42600       -2.59700
H         -3.35400        7.58300       -1.63100
H         -5.11600        7.40500       -1.76900
H         -4.40400        7.12200        0.49000
H         -3.14300        5.95800        0.10800
H         -5.06700        4.91200        1.12100
H         -5.08600        4.34100       -0.65300
H         -6.63200        6.20200       -1.13100
H         -6.66200        6.58500        0.60100
H         -8.62200        5.26700       -0.06500
H         -7.66800        4.44700        1.17200
H         -6.71100        2.94100       -0.71300
H         -8.48300        2.90300       -0.54100
H         -8.75400        4.35400       -2.50800
H         -6.95300        4.68000       -2.44600
H         -7.49200        3.03900       -2.84100
H          4.74800       -0.37100       -0.33100
H          3.57600        0.75300        1.74600
H          3.90500        2.27700        0.93900
H          6.22300        1.99500        0.84000
H          5.69700        1.90500        2.51700
H          6.54000       -0.31800        0.55700
H          7.42200        0.25600        1.97800
H          6.44500       -1.94900        2.29000
H          4.82700       -1.38600        1.90100
H          5.05800        0.07800        4.13700
H          6.56500       -0.79300        4.39900
H          5.55300       -2.94200        3.99300
H          3.95500       -2.17700        3.79300
H          5.64300       -2.18500        6.35300
H          4.05500       -1.26900        6.11700
H          2.90800       -3.40300        5.79900
H          3.90300       -3.42600        7.32200
H          4.93000       -4.71200        4.71500
H          5.65100       -4.65600        6.41900
H          3.87300       -6.07300        7.26500
H          4.59900       -6.78800        5.78700
H          2.69600       -5.89300        4.40200
H          1.96600       -5.18100        5.85100
H          0.94800       -7.26700        5.15800
H          1.56600       -7.38100        6.82100
H          2.01400       -9.39700        5.46300
H          3.62400       -8.59200        5.86000
H          3.63600       -7.53000        3.63900
H          2.07700       -8.24400        3.21500
H          3.10300      -10.52700        3.43700
H          4.64500       -9.77500        3.92800
H          4.74400       -8.63300        1.68400
H          4.61900      -10.43000        1.56900
H          2.36500       -8.36900        1.21100
H          3.06400       -9.38100       -0.05300
H          2.10700      -10.20700        1.28700
H         -0.69500       -2.31700       -2.79800
H          4.78700        2.40100       -0.91700
H          0.20700       -0.05900        3.37800
H         -1.60600       -0.89700        2.18900
H         -0.61700       -0.19200        0.14800
