149
1ln1_DLP_conf9.pdb
C         -1.28400       -3.01700        3.92000
C         -1.39100       -1.54800        3.70500
C         -2.73100       -1.05200        3.34700
C         -1.49400       -7.17500        3.19500
C         -1.64400       -7.63700        1.75700
C          0.10800       -6.12200        1.11800
C         -0.85100       -7.53000       -0.48800
C          0.54800       -8.39800        1.18000
C         -4.68500       -1.22300        2.15800
C         -5.13900       -1.02100        0.76400
C         -5.19000       -2.33500       -0.01800
C         -5.74700       -2.09400       -1.42700
C         -5.81700       -3.34700       -2.21300
C         -4.62000       -4.10900       -2.53100
C         -3.58200       -3.77000       -3.48800
C         -2.85000       -2.49800       -3.56300
C         -3.56000       -1.30300       -4.08000
C         -2.63000       -0.07100       -3.99500
C         -3.44200        1.08600       -4.52300
C         -2.58600        2.34300       -4.43100
C         -2.18300        2.61400       -3.00800
C         -1.34000        3.88200       -2.98700
C         -0.91500        4.18700       -1.54700
C         -0.12100        3.04100       -0.97800
C          0.31000        3.34600        0.44200
C         -0.85500        3.60000        1.36800
C          0.42200       -0.30400        4.47000
C          1.22800       -0.36200        5.69300
C          2.64900       -0.03700        5.79300
C          3.23700        1.21400        5.27700
C          3.37500        1.33000        3.79200
C          3.97800        2.67800        3.34900
C          4.11800        2.52400        1.82800
C          4.69100        3.76800        1.21500
C          4.85500        3.54600       -0.27800
C          5.40000        4.81200       -0.88700
C          5.59200        4.61200       -2.42100
C          6.10000        5.90100       -2.94900
C          6.40000        5.99500       -4.38100
C          5.37700        5.83500       -5.41400
C          4.66400        4.54800       -5.53800
C          5.60200        3.37200       -5.73700
C          4.71200        2.13400       -5.85900
C          5.56000        0.90500       -6.06600
N         -0.49900       -7.42500        0.93700
O         -0.88800       -0.80300        4.73900
O         -3.42000       -1.75700        2.35800
O         -5.65500       -2.10200        2.73400
O          0.19500        1.11600        4.24700
O         -0.06700       -5.99600        4.95600
O         -2.55500       -5.70600        6.12600
O         -1.90800       -3.57400        5.01600
O         -1.22600       -5.84200        3.29900
P         -1.56500       -5.25700        4.85200
H         -1.51800       -3.56000        2.97500
H         -0.17900       -3.22500        4.07000
H         -0.65900       -1.36300        2.84400
H         -2.58000       -0.01300        2.91700
H         -3.33000       -0.86400        4.26200
H         -0.74900       -7.82900        3.73300
H         -2.47900       -7.41600        3.67600
H         -2.53500       -7.16600        1.31600
H         -1.88100       -8.74300        1.79200
H          0.71100       -5.94100        0.17600
H          0.83700       -6.13600        1.94000
H         -0.61100       -5.28600        1.13500
H         -1.58400       -8.34300       -0.60900
H          0.06800       -7.65700       -1.10700
H         -1.25400       -6.53800       -0.78400
H          0.10600       -9.41800        1.12000
H          1.30900       -8.29200        0.34800
H          1.06600       -8.23300        2.15800
H         -4.78600       -0.31100        2.76500
H         -4.49500       -0.28200        0.20600
H         -6.14300       -0.55300        0.79200
H         -4.15100       -2.72700       -0.04900
H         -5.79200       -3.05400        0.55500
H         -5.35300       -1.19300       -1.86200
H         -6.84500       -1.82000       -1.20600
H         -6.32800       -3.09300       -3.19100
H         -6.59500       -3.99000       -1.68300
H         -4.13200       -4.50400       -1.53300
H         -5.02200       -5.14600       -2.88900
H         -2.75600       -4.59200       -3.47700
H         -3.96000       -3.95700       -4.58000
H         -2.29400       -2.25600       -2.60100
H         -1.97800       -2.67100       -4.28200
H         -4.52100       -1.01400       -3.74000
H         -3.68400       -1.51200       -5.21900
H         -2.44100        0.06800       -2.93300
H         -1.69400       -0.23700       -4.52200
H         -4.33500        1.19300       -3.87300
H         -3.79800        0.90700       -5.53500
H         -3.22500        3.15200       -4.84800
H         -1.67400        2.28300       -5.04700
H         -1.48800        1.79300       -2.71500
H         -3.02800        2.68600       -2.31500
H         -1.92900        4.73900       -3.36700
H         -0.44500        3.73600       -3.59000
H         -0.21100        5.04900       -1.60900
H         -1.83000        4.40000       -0.97300
H         -0.68300        2.08200       -0.93100
H          0.78600        2.89500       -1.59200
H          0.84200        2.44100        0.86000
H          1.00100        4.19600        0.51300
H         -0.42700        3.61900        2.40100
H         -1.29700        4.59800        1.18500
H         -1.62200        2.81300        1.36400
H          0.79000       -0.71500        3.57500
H          1.15300       -1.47600        6.03200
H          0.71500        0.22500        6.54000
H          2.90700       -0.17100        6.91100
H          3.28000       -0.89900        5.34300
H          4.29600        1.26800        5.68400
H          2.76200        2.13000        5.71500
H          4.17900        0.58800        3.42500
H          2.50100        1.08700        3.20200
H          3.25400        3.45800        3.61600
H          4.97400        2.81700        3.78300
H          3.15300        2.32100        1.36100
H          4.82200        1.67000        1.67700
H          3.93300        4.59300        1.29600
H          5.64700        4.09200        1.67200
H          3.88200        3.28700       -0.70300
H          5.58300        2.69900       -0.42100
H          4.67500        5.61200       -0.74000
H          6.37600        5.08300       -0.46300
H          4.69400        4.22400       -2.85000
H          6.40100        3.84800       -2.52600
H          5.31300        6.70400       -2.70100
H          6.99500        6.25400       -2.32100
H          7.24600        5.24700       -4.61100
H          6.98000        6.97800       -4.55200
H          4.56300        6.63000       -5.27100
H          5.85100        6.06800       -6.42500
H          3.87600        4.41500       -4.80500
H          4.06200        4.61600       -6.54400
H          6.20500        3.50500       -6.65100
H          6.29200        3.25500       -4.89900
H          3.99800        2.26800       -6.71500
H          4.09000        2.02500       -4.95400
H          4.89700        0.03800       -6.30900
H          6.22700        1.09200       -6.95800
H          6.17900        0.68100       -5.17800
H         -6.40800       -1.56100        3.06300
H         -0.43700        1.37600        4.93600
H         -0.10700       -6.58300        5.76900
H         -2.07800       -6.39200        6.66600
H         -2.95400       -5.29000        4.73400
