149
1ln1_DLP_conf40.pdb
C         -4.47500       -1.19000       -2.63400
C         -5.23300       -1.13400       -1.35600
C         -6.30900       -0.04900       -1.57500
C         -0.55100       -3.12000       -3.44500
C          0.27800       -3.91300       -2.49500
C          1.89500       -4.50300       -4.06800
C          2.42400       -4.74600       -1.82800
C          2.25400       -2.57800       -2.80200
C         -6.38100        2.25100       -1.76600
C         -5.74100        3.38600       -2.49900
C         -5.29500        3.00500       -3.87000
C         -4.60100        4.18600       -4.56200
C         -3.38700        4.60200       -3.73900
C         -2.39900        3.49800       -3.62100
C         -1.23900        3.94900       -2.72600
C         -0.28200        2.79100       -2.66500
C          0.90300        2.97300       -1.78700
C          0.51100        3.21600       -0.34100
C          1.70400        3.31500        0.55800
C          2.63500        4.41200        0.20200
C          2.00800        5.77300        0.28300
C          3.09200        6.77900       -0.07200
C          2.56600        8.18800        0.03000
C          3.62100        9.21700       -0.30400
C          3.06300       10.62100       -0.16000
C          2.58500       10.84800        1.26600
C         -5.52500       -2.86000        0.09400
C         -4.63800       -4.10900       -0.04500
C         -4.28300       -4.57300        1.37100
C         -3.44800       -5.80200        1.41600
C         -3.12700       -6.20900        2.84700
C         -2.29000       -5.17000        3.56900
C         -2.07200       -5.55700        5.01200
C         -1.19900       -4.53400        5.68900
C          0.20500       -4.48400        5.13200
C          0.97400       -3.43900        5.93200
C          2.41100       -3.36000        5.56500
C          2.74400       -2.98000        4.15200
C          4.25900       -3.05800        4.05900
C          4.84800       -2.69400        2.75900
C          4.60400       -1.26400        2.33700
C          5.27100       -0.98100        0.99700
C          5.07600        0.45800        0.57200
C          5.67300        1.42300        1.58200
N          1.69300       -3.89900       -2.74500
O         -5.82600       -2.40600       -1.19600
O         -5.59600        1.14400       -1.57600
O         -6.53200        2.75100       -0.38700
O         -6.69500       -3.30100        0.68800
O         -2.65500       -3.96700       -4.63000
O         -4.28900       -3.28200       -4.12500
O         -3.49100       -2.17100       -2.69800
O         -1.91500       -3.18000       -3.15000
P         -2.85500       -2.34300       -4.24200
H         -5.14100       -1.27200       -3.51000
H         -3.92000       -0.21900       -2.80500
H         -4.66800       -0.81200       -0.49200
H         -6.77400       -0.27200       -2.56400
H         -7.11100       -0.10700       -0.84400
H         -0.26000       -2.05600       -3.39700
H         -0.34500       -3.46600       -4.48100
H         -0.01500       -5.00400       -2.59800
H          0.12000       -3.58300       -1.44100
H          1.90300       -3.69700       -4.82100
H          2.85600       -5.04800       -4.14400
H          1.03400       -5.15500       -4.32600
H          2.45500       -4.33600       -0.80600
H          2.03900       -5.78200       -1.90300
H          3.47900       -4.75900       -2.17600
H          1.74400       -2.03900       -3.65600
H          2.19600       -1.99700       -1.87900
H          3.31400       -2.68100       -3.16900
H         -7.41500        2.04600       -2.01900
H         -6.48300        4.21700       -2.50200
H         -4.82400        3.66400       -1.90800
H         -4.69200        2.09900       -3.86400
H         -6.21100        2.80000       -4.49000
H         -5.25800        5.03900       -4.72400
H         -4.23100        3.81500       -5.52700
H         -2.92200        5.43200       -4.34700
H         -3.62500        5.03400       -2.77500
H         -2.77800        2.52200       -3.31600
H         -1.92100        3.31900       -4.63000
H         -1.58700        4.18300       -1.70400
H         -0.75000        4.85000       -3.12500
H          0.10400        2.65800       -3.70600
H         -0.81300        1.84600       -2.42200
H          1.50400        2.04200       -1.82800
H          1.51300        3.84800       -2.09100
H         -0.09900        4.13400       -0.31100
H         -0.16800        2.40200       -0.00500
H          1.32300        3.48800        1.59000
H          2.29600        2.36000        0.53900
H          3.06300        4.21700       -0.82100
H          3.50000        4.39700        0.90900
H          1.20300        5.84100       -0.45700
H          1.66000        5.96800        1.32300
H          3.53800        6.51600       -1.04000
H          3.89200        6.65900        0.70000
H          1.65800        8.30600       -0.56800
H          2.31500        8.33400        1.10800
H          3.90700        9.08400       -1.36500
H          4.48700        9.13300        0.37700
H          3.89400       11.32900       -0.35100
H          2.24000       10.84100       -0.84200
H          2.46400       11.94200        1.39300
H          3.27000       10.41200        2.01900
H          1.57900       10.38400        1.40300
H         -4.92800       -2.16400        0.69000
H         -3.69500       -3.89000       -0.55500
H         -5.15600       -4.94400       -0.52400
H         -3.74200       -3.74200        1.90500
H         -5.24500       -4.66700        1.91000
H         -3.93500       -6.65000        0.91500
H         -2.47500       -5.65300        0.89200
H         -2.51900       -7.13800        2.86200
H         -4.03000       -6.40300        3.44700
H         -2.92400       -4.23800        3.62200
H         -1.34100       -4.98200        3.02900
H         -3.08200       -5.51100        5.50400
H         -1.66000       -6.57900        5.14600
H         -1.66300       -3.51500        5.63700
H         -1.11100       -4.73300        6.78300
H          0.68200       -5.48400        5.30700
H          0.16000       -4.21200        4.07500
H          0.49800       -2.43900        5.72500
H          0.82500       -3.66500        7.00300
H          2.91300       -2.60100        6.21000
H          2.94200       -4.32300        5.81100
H          2.49400       -1.88900        4.02800
H          2.21900       -3.56600        3.40400
H          4.67300       -2.41600        4.87300
H          4.59400       -4.10900        4.30700
H          5.93800       -2.83000        2.80300
H          4.44000       -3.41100        1.99500
H          3.51500       -1.14600        2.16300
H          4.95500       -0.54800        3.09300
H          4.71800       -1.58200        0.21000
H          6.32800       -1.24100        0.96200
H          4.03200        0.71000        0.37500
H          5.65500        0.60900       -0.36800
H          6.70400        1.12300        1.85400
H          5.02000        1.57000        2.45200
H          5.78600        2.41000        1.04900
H         -5.60900        2.82900       -0.02400
H         -7.14100       -3.87700       -0.00800
H         -2.29600       -3.98300       -5.54600
H         -4.96100       -2.88500       -4.74400
H         -3.09100       -3.26500       -3.20300
