149
1ln1_DLP_conf42.pdb
C          2.63600       -3.13700       -3.91400
C          1.54300       -3.09900       -2.87900
C          0.18000       -2.84800       -3.52200
C          5.18600       -0.15600       -3.50700
C          4.77000        1.05700       -2.72500
C          2.43200        1.16600       -2.19700
C          3.11100        1.33500       -4.44000
C          3.58800        3.04700       -2.94200
C         -2.03100       -2.34000       -2.95200
C         -2.63200       -1.23900       -2.14700
C         -3.99900       -0.78800       -2.57000
C         -4.52900        0.24700       -1.64300
C         -3.69700        1.47700       -1.52100
C         -4.36400        2.42300       -0.53400
C         -3.56900        3.69700       -0.32300
C         -4.30200        4.56200        0.68300
C         -3.66200        5.83600        1.02400
C         -3.33100        6.85300        0.02700
C         -4.35800        7.50700       -0.80800
C         -5.13200        6.64700       -1.73700
C         -6.11300        7.48100       -2.57400
C         -5.46800        8.49900       -3.41200
C         -4.51200        8.12700       -4.47700
C         -4.96200        7.34600       -5.65000
C         -5.49100        5.97800       -5.51000
C         -4.52500        4.98500       -4.91100
C          1.71800       -3.67100       -0.74400
C          2.67800       -4.33100        0.16200
C          4.08700       -4.45100       -0.27700
C          5.00300       -5.06800        0.75700
C          5.05300       -4.14400        1.98500
C          5.93500       -4.72100        3.04300
C          6.16600       -3.78300        4.15900
C          5.13800       -3.17500        4.99100
C          4.15100       -2.23800        4.43100
C          3.24800       -1.68100        5.52300
C          2.46800       -2.69100        6.27700
C          1.54400       -3.54600        5.48400
C          0.78100       -4.48700        6.35800
C          1.60700       -5.43400        7.17000
C          0.65200       -6.29400        7.97900
C          1.35000       -7.29200        8.85500
C          2.20900       -8.24100        8.05900
C          1.35900       -9.00000        7.07100
N          3.50400        1.60300       -3.07200
O          1.53600       -4.18800       -2.01100
O         -0.77500       -2.69700       -2.53300
O         -2.91400       -3.46300       -2.85300
O          0.44500       -3.79400       -0.11400
O          5.61500       -1.79600       -5.59800
O          6.53000       -3.02900       -3.41600
O          3.84200       -3.13900       -3.21900
O          4.33600       -1.21500       -3.39400
P          5.10200       -2.52900       -4.16600
H          2.55000       -4.01500       -4.58700
H          2.58700       -2.17900       -4.46600
H          1.72700       -2.13200       -2.31400
H         -0.03600       -3.67300       -4.20000
H          0.23100       -1.89800       -4.10400
H          6.18300       -0.49500       -3.09700
H          5.42600        0.17100       -4.53600
H          5.53800        1.85200       -2.78400
H          4.71800        0.77800       -1.63100
H          1.98900        0.21300       -2.51500
H          1.69400        1.99200       -2.14500
H          2.87100        1.07700       -1.17000
H          2.11400        1.79100       -4.58800
H          3.84700        1.82200       -5.11300
H          2.99600        0.26300       -4.65500
H          2.67400        3.46800       -2.47400
H          4.44200        3.36300       -2.28200
H          3.79200        3.53200       -3.93300
H         -2.04500       -2.11500       -4.02100
H         -2.72600       -1.58100       -1.07800
H         -1.99000       -0.32000       -2.15400
H         -4.68900       -1.66000       -2.54500
H         -3.91900       -0.35100       -3.59000
H         -4.78700       -0.17700       -0.64700
H         -5.52400        0.57900       -2.06600
H         -2.66300        1.28400       -1.18300
H         -3.62000        1.95500       -2.52500
H         -4.52600        1.88100        0.40400
H         -5.36600        2.68200       -0.93900
H         -3.28000        4.20200       -1.23800
H         -2.61900        3.36400        0.18800
H         -5.36900        4.61100        0.46200
H         -4.30800        3.96300        1.69000
H         -4.37700        6.35000        1.76800
H         -2.77900        5.60400        1.70500
H         -2.51900        6.51500       -0.69400
H         -2.75300        7.66800        0.60700
H         -3.87200        8.36000       -1.38900
H         -5.05700        8.07300       -0.10600
H         -5.79500        5.95500       -1.19000
H         -4.43900        6.06600       -2.33900
H         -6.76200        6.80800       -3.12400
H         -6.69300        8.04700       -1.77900
H         -6.31900        9.04600       -3.95500
H         -5.02500        9.33900       -2.77100
H         -4.16100        9.13300       -4.91500
H         -3.56600        7.65800       -4.03300
H         -4.10100        7.27300       -6.40700
H         -5.75900        7.96400       -6.16600
H         -6.52700        5.86600       -5.14000
H         -5.60200        5.60400       -6.60000
H         -5.06100        4.45900       -4.07700
H         -3.62500        5.50900       -4.52400
H         -4.21700        4.20300       -5.61100
H          1.85900       -2.57400       -0.79900
H          2.31300       -5.37000        0.42600
H          2.57000       -3.78900        1.15000
H          4.52300       -3.47800       -0.59300
H          4.13400       -5.10600       -1.17100
H          4.71800       -6.05500        1.10100
H          6.03800       -5.10400        0.37000
H          4.03000       -4.15800        2.44300
H          5.43400       -3.19500        1.65400
H          6.93200       -5.03500        2.63000
H          5.44400       -5.65200        3.50000
H          6.74600       -2.89200        3.69400
H          7.02500       -4.20200        4.82900
H          5.69800       -2.57600        5.79600
H          4.66200       -3.97700        5.63300
H          3.47100       -2.54400        3.65400
H          4.70000       -1.34800        4.03000
H          3.78300       -0.99000        6.18500
H          2.49600       -1.03100        4.98300
H          3.09400       -3.37000        6.89700
H          1.83400       -2.12700        7.01100
H          0.81400       -2.94000        4.91400
H          2.18000       -4.12600        4.75100
H          0.16100       -3.88600        7.05500
H          0.04200       -5.02900        5.71700
H          2.25800       -6.04400        6.54700
H          2.20800       -4.86300        7.91400
H          0.04900       -6.84700        7.23200
H         -0.02700       -5.64100        8.56400
H          0.55500       -7.92200        9.35200
H          1.95000       -6.78600        9.66300
H          2.96900       -7.67500        7.51100
H          2.67400       -8.98200        8.76300
H          1.56600      -10.09000        7.15900
H          0.28100       -8.85700        7.30700
H          1.56100       -8.63300        6.05100
H         -2.77800       -3.87100       -1.98000
H          0.52800       -4.02700        0.83100
H          4.92500       -1.16300       -5.97700
H          6.30400       -3.34000       -2.48900
H          5.14300       -3.43000       -5.20700
