149
1ln1_DLP_conf21.pdb
C         -1.31500       -2.13500       -0.13300
C         -2.23100       -3.31200        0.20300
C         -3.64200       -2.68600        0.18700
C          0.79300        0.27900       -3.64400
C          1.80000        1.21800       -4.19800
C          4.07000        1.75300       -4.63800
C          3.60000       -0.24600       -3.56200
C          3.30100        1.77300       -2.42800
C         -4.84500       -1.15100        1.47100
C         -4.62200        0.25300        1.92600
C         -3.85900        1.14800        1.00100
C         -3.63700        2.43900        1.75200
C         -2.93300        3.51400        1.04400
C         -3.68500        4.12100       -0.14800
C         -2.84500        5.16100       -0.80600
C         -3.42800        5.96900       -1.88000
C         -4.00500        5.37700       -3.07800
C         -3.13500        4.51200       -3.95200
C         -3.92000        4.05000       -5.16100
C         -3.17900        3.14100       -6.08300
C         -2.83000        1.89600       -5.34600
C         -2.13400        0.83800       -6.18400
C         -3.00300        0.44600       -7.36100
C         -2.39400       -0.65900       -8.17000
C         -1.05900       -0.38800       -8.76900
C         -0.59600       -1.62600       -9.55400
C         -1.77000       -5.49400       -0.30700
C         -0.54900       -6.02500       -0.95800
C          0.67100       -5.16200       -0.80500
C          1.06500       -4.86200        0.59300
C          2.31400       -3.96400        0.54800
C          2.69300       -3.58100        1.93900
C          3.91600       -2.67500        2.02200
C          4.15900       -2.30200        3.46400
C          5.32500       -1.39400        3.68900
C          5.44300       -1.03700        5.18700
C          5.66100       -2.21600        6.05900
C          5.73700       -1.85200        7.55000
C          4.41500       -1.24500        7.95800
C          4.36500       -0.84400        9.42400
C          2.99000       -0.29900        9.68600
C          2.63200        0.88100        8.84300
C          1.21500        1.33800        9.20600
C          0.78900        2.52400        8.38000
N          3.12900        1.11600       -3.70700
O         -2.11300       -4.22300       -0.82800
O         -3.69100       -1.84800        1.28000
O         -5.49000       -1.83500        2.56900
O         -2.83700       -6.33500       -0.59500
O         -0.68900       -1.80700       -2.88500
O          0.55700       -0.31200       -0.80600
O         -1.76800       -1.62700       -1.34700
O          0.65500        0.42600       -2.27000
P         -0.73800       -0.44300       -1.86800
H         -0.26900       -2.42300       -0.24900
H         -1.40900       -1.40800        0.69700
H         -2.05000       -3.70300        1.19700
H         -4.43100       -3.46300        0.18000
H         -3.72500       -2.11500       -0.74900
H          1.03200       -0.79000       -3.81300
H         -0.15500        0.45600       -4.18200
H          1.85700        1.15200       -5.32300
H          1.46400        2.27300       -4.01900
H          3.53500        2.65800       -5.04200
H          4.23700        1.03500       -5.47700
H          4.98500        2.02000       -4.10900
H          3.79800       -0.75100       -4.52500
H          2.96800       -0.83500       -2.86600
H          4.59300       -0.16300       -3.06600
H          3.77100        1.10500       -1.65600
H          2.27700        2.07800       -2.10000
H          3.94300        2.65300       -2.53600
H         -5.56900       -1.29500        0.65600
H         -5.64800        0.69900        2.08800
H         -4.18700        0.21700        2.95100
H         -4.48600        1.30700        0.08800
H         -2.94100        0.63600        0.68600
H         -4.64100        2.80600        2.06300
H         -3.08800        2.21400        2.69200
H         -1.98200        3.13000        0.61900
H         -2.75700        4.36500        1.74700
H         -3.76800        3.27600       -0.87200
H         -4.63400        4.48200        0.25000
H         -2.53600        5.87600        0.02100
H         -1.87700        4.73100       -1.14300
H         -4.18600        6.69900       -1.46500
H         -2.61500        6.70000       -2.24500
H         -4.95100        4.81000       -2.80400
H         -4.42100        6.22000       -3.71000
H         -2.82400        3.64100       -3.38400
H         -2.29900        5.14000       -4.32000
H         -4.85400        3.52800       -4.79900
H         -4.27900        4.94500       -5.75500
H         -2.25900        3.68000       -6.40300
H         -3.85300        2.95000       -6.95400
H         -2.15500        2.07500       -4.48100
H         -3.76400        1.45400       -4.93900
H         -1.14800        1.10900       -6.54400
H         -2.04500       -0.05100       -5.52500
H         -3.05300        1.34300       -8.05900
H         -4.02200        0.16500       -7.06000
H         -3.11200       -0.89500       -9.00900
H         -2.36000       -1.55400       -7.49100
H         -0.97800        0.49300       -9.39900
H         -0.32500       -0.27200       -7.93800
H         -0.59600       -1.36000      -10.63300
H         -1.31700       -2.44600       -9.41800
H          0.37400       -1.98800       -9.19700
H         -1.69300       -5.43800        0.80200
H         -0.76600       -6.07000       -2.06100
H         -0.32200       -7.06300       -0.64700
H          0.68100       -4.24700       -1.40400
H          1.51500       -5.78400       -1.23800
H          1.41400       -5.76500        1.16600
H          0.33700       -4.29300        1.18000
H          2.01600       -3.05800       -0.01700
H          3.11700       -4.44100       -0.03300
H          1.84200       -3.00000        2.37100
H          2.85900       -4.49800        2.54700
H          4.83200       -3.20800        1.66300
H          3.82300       -1.79900        1.35600
H          4.40000       -3.25600        4.01200
H          3.27100       -1.87200        3.95500
H          5.31700       -0.45900        3.13300
H          6.30100       -1.91600        3.46200
H          6.30500       -0.35100        5.33300
H          4.55100       -0.44600        5.47800
H          6.61200       -2.73300        5.79100
H          4.84200       -2.96200        5.98900
H          5.96200       -2.73800        8.14100
H          6.53400       -1.11700        7.66100
H          3.58200       -1.90800        7.75400
H          4.29100       -0.30400        7.37900
H          5.15900       -0.13700        9.69600
H          4.52500       -1.76200       10.01600
H          2.21000       -1.08400        9.56200
H          2.89300        0.00900       10.76800
H          3.31100        1.70900        9.06100
H          2.62900        0.67400        7.75300
H          0.51700        0.49500        8.97700
H          1.16500        1.60600       10.27400
H          1.64300        3.14100        8.03400
H          0.23800        2.16500        7.47500
H          0.13400        3.15800        9.00400
H         -4.79500       -1.96700        3.27000
H         -2.71700       -6.66700       -1.50600
H          0.14400       -2.31100       -2.84500
H          0.16700       -0.24600        0.12600
H         -2.10500       -0.40100       -2.27500
