149
1ln1_DLP_conf41.pdb
C         -1.10800       -0.51800        1.00200
C         -0.67400       -0.68200        2.44000
C          0.28300       -1.76200        2.60100
C         -1.61600        2.96000       -2.01500
C         -2.69700        3.94600       -2.30500
C         -4.36800        2.72900       -3.49600
C         -2.48900        3.50200       -4.67700
C         -4.07500        5.02300       -3.86700
C          1.02500       -3.81900        2.39600
C          1.49400       -4.75800        1.34200
C          1.90700       -4.16900        0.05200
C          0.94800       -3.40500       -0.76200
C         -0.22800       -3.99700       -1.36900
C         -1.30100       -4.64300       -0.53100
C         -2.39200       -5.14600       -1.46200
C         -3.49300       -5.86900       -0.81100
C         -4.39100       -5.26100        0.16900
C         -3.91200       -4.73900        1.45900
C         -3.21000       -5.75000        2.31900
C         -2.75100       -5.10200        3.58800
C         -3.90000       -4.53500        4.44200
C         -3.30300       -3.91000        5.65900
C         -4.12500       -3.36100        6.72800
C         -5.09800       -2.27700        6.56200
C         -6.27000       -2.55000        5.69300
C         -7.21500       -1.31900        5.68100
C         -1.22200        1.15600        3.73100
C         -1.38900        2.52700        3.09700
C         -0.20800        3.42100        3.19700
C          1.05300        2.78600        2.70800
C          2.19100        3.81200        2.83800
C          2.07600        4.97300        1.92700
C          2.27400        4.59200        0.46200
C          3.64700        4.07800        0.23200
C          3.91700        3.64900       -1.18700
C          5.35800        3.19400       -1.32800
C          5.64300        2.70700       -2.70900
C          4.85800        1.51000       -3.10800
C          5.17000        0.99000       -4.49600
C          6.61400        0.63400       -4.66100
C          7.15900       -0.37800       -3.73100
C          6.51400       -1.72700       -3.74300
C          7.26100       -2.54600       -2.68300
C          6.72600       -3.94600       -2.55400
N         -3.35900        3.80000       -3.55700
O         -0.25900        0.48100        3.02000
O         -0.07000       -3.02200        2.08400
O          0.57900       -4.66300        3.46800
O         -0.97100        1.38900        5.05500
O         -2.60400        0.09000       -1.38600
O         -1.24600        0.23700       -2.79900
O         -0.18500       -0.00000        0.14000
O         -2.07200        1.64000       -2.01000
P         -0.98900        0.62400       -1.20300
H         -2.09800        0.03300        0.95000
H         -1.38400       -1.53100        0.65100
H         -1.66500       -0.92200        2.93600
H          0.49600       -1.99400        3.69500
H          1.28700       -1.49900        2.17600
H         -0.73000        2.98400       -2.65200
H         -1.25000        3.18000       -0.96500
H         -2.38200        4.98900       -2.07300
H         -3.49500        3.74300       -1.52200
H         -5.27200        3.03700       -4.01700
H         -4.53100        2.52100       -2.40700
H         -3.90300        1.80600       -3.90300
H         -3.16700        3.53000       -5.58600
H         -2.09700        2.48700       -4.64900
H         -1.76100        4.30300       -4.84700
H         -4.25000        5.55000       -2.89300
H         -3.46100        5.68900       -4.48300
H         -5.08700        4.84800       -4.29400
H          1.85300       -3.26600        2.85600
H          2.50300       -5.14700        1.78600
H          0.92800       -5.71300        1.30700
H          2.26200       -5.03900       -0.59200
H          2.81400       -3.53700        0.25400
H          1.58600       -2.89400       -1.57500
H          0.60700       -2.49500       -0.17900
H          0.12500       -4.72700       -2.16500
H         -0.73600       -3.19600       -2.01000
H         -1.74800       -3.83500        0.06500
H         -0.91900       -5.49400        0.04500
H         -2.83600       -4.26200       -1.99900
H         -1.91200       -5.74900       -2.29500
H         -3.15600       -6.91700       -0.47800
H         -4.18100       -6.18500       -1.68700
H         -4.87400       -4.35900       -0.35800
H         -5.33000       -5.90500        0.33200
H         -3.48400       -3.72400        1.46900
H         -4.89700       -4.55100        2.05700
H         -2.30500       -6.19800        1.85400
H         -3.96800       -6.52600        2.57100
H         -2.12500       -4.24300        3.32900
H         -2.10600       -5.77700        4.19600
H         -4.38300       -3.74400        3.83200
H         -4.59400       -5.35300        4.64600
H         -2.52800       -3.12100        5.34900
H         -2.62100       -4.69300        6.11900
H         -4.64800       -4.26300        7.24100
H         -3.37800       -3.07900        7.57800
H         -5.52600       -2.01100        7.59500
H         -4.61200       -1.29800        6.27500
H         -6.89600       -3.41200        6.06400
H         -6.09300       -2.73200        4.63400
H         -6.75900       -0.46700        5.16400
H         -7.43100       -1.08000        6.75200
H         -8.17100       -1.60400        5.21800
H         -2.16400        0.61500        3.63900
H         -2.30100        3.05700        3.45300
H         -1.58500        2.41100        1.98000
H         -0.08900        3.87300        4.21300
H         -0.48000        4.33300        2.56500
H          1.00800        2.30100        1.74800
H          1.33200        2.01400        3.48400
H          2.07000        4.21400        3.86900
H          3.16000        3.28600        2.83800
H          1.08800        5.43800        2.03000
H          2.83500        5.72100        2.22600
H          2.12800        5.51300       -0.12100
H          1.49800        3.87300        0.16300
H          3.93900        3.23100        0.87900
H          4.41800        4.87400        0.46900
H          3.76900        4.51400       -1.89600
H          3.21900        2.87700       -1.51700
H          5.46400        2.34200       -0.61100
H          6.02700        4.02500       -1.01700
H          6.74600        2.56400       -2.78700
H          5.43900        3.58200       -3.39700
H          3.78000        1.75600       -3.09500
H          5.02000        0.73600       -2.32500
H          4.52800        0.13600       -4.70100
H          4.91400        1.78200       -5.21900
H          7.27000        1.52500       -4.62400
H          6.72100        0.23700       -5.71400
H          7.23600        0.00900       -2.67300
H          8.24200       -0.54000       -4.00900
H          5.44200       -1.72700       -3.53500
H          6.67800       -2.27300       -4.69000
H          8.34000       -2.61100       -2.90300
H          7.17200       -2.04300       -1.68500
H          6.51900       -4.42200       -3.52500
H          7.51500       -4.57900       -2.05500
H          5.85400       -4.03600       -1.88600
H          1.31600       -4.84400        4.10800
H         -1.67800        1.95100        5.44200
H         -2.64700       -0.74000       -0.84000
H         -0.36300        0.21000       -3.27000
H          0.17400        1.00600       -0.53700
