149
1ln1_DLP_conf38.pdb
C         -0.80500       -4.98600        3.36400
C         -0.53100       -5.38600        1.99500
C          0.98100       -5.61400        1.78800
C          0.29100       -2.51400        5.56800
C          1.06100       -1.36600        6.13000
C          3.08600       -1.82600        7.22100
C          3.08700       -0.21300        5.54800
C          2.87100       -2.46200        4.96500
C          2.70600       -5.18200        0.29200
C          3.20200       -4.06700       -0.57200
C          2.89300       -2.65700       -0.17800
C          1.41300       -2.34900       -0.14200
C          1.15100       -0.89100        0.18700
C         -0.34200       -0.60200        0.21500
C         -0.65900        0.82800        0.52200
C         -2.14000        1.13600        0.55500
C         -2.90800        0.38300        1.58000
C         -4.34400        0.73500        1.58500
C         -4.95000        1.91600        2.11100
C         -4.55200        3.32600        1.89100
C         -3.33300        3.79300        2.62200
C         -3.06700        5.24800        2.32700
C         -2.78100        5.52500        0.89400
C         -2.51700        7.01300        0.65900
C         -2.20900        7.25200       -0.80400
C         -0.99300        6.50600       -1.25900
C         -1.46400       -5.60500       -0.04200
C         -2.78200       -5.05900       -0.50900
C         -2.50700       -4.61300       -1.96800
C         -3.76400       -4.02500       -2.52100
C         -3.63100       -3.66200       -3.98000
C         -2.55700       -2.69000       -4.28200
C         -2.66900       -1.34400       -3.64300
C         -1.47200       -0.52600       -4.11200
C         -1.46800        0.86600       -3.55900
C         -0.23700        1.64600       -4.06400
C         -0.25700        3.04400       -3.49700
C          0.92200        3.88600       -3.95100
C          2.18700        3.23600       -3.51900
C          3.44400        3.96000       -3.90100
C          4.59500        3.16400       -3.32500
C          5.94300        3.77700       -3.62300
C          6.12500        5.16200       -3.08800
C          7.50800        5.71700       -3.44000
N          2.47500       -1.46400        5.93500
O         -1.35600       -6.12900        1.21400
O          1.36400       -5.26900        0.50400
O          3.14200       -6.39300       -0.33200
O         -1.11300       -6.60900       -0.98200
O         -2.95200       -2.79800        6.04400
O         -1.30600       -4.93400        6.42500
O         -1.80100       -4.05200        3.61500
O         -1.09900       -2.44500        5.75000
P         -1.90000       -3.83800        5.29700
H          0.14900       -4.68700        3.88500
H         -1.07500       -5.95100        3.94600
H         -0.57300       -4.36100        1.37400
H          1.52700       -5.03400        2.52300
H          1.19000       -6.70900        1.97900
H          0.57600       -3.51300        5.95600
H          0.40900       -2.42900        4.44200
H          0.69800       -0.45200        5.57000
H          0.81700       -1.13000        7.19600
H          2.43700       -2.56400        7.69600
H          4.06500       -2.32000        6.94500
H          3.25000       -0.89300        7.81000
H          3.87800       -0.38700        4.76800
H          3.48500        0.38000        6.39800
H          2.34200        0.44000        5.02000
H          3.97800       -2.42800        4.90400
H          2.50600       -2.21700        3.94500
H          2.63000       -3.49800        5.25700
H          3.21300       -5.22800        1.30800
H          2.88900       -4.21700       -1.64800
H          4.34100       -4.12300       -0.66000
H          3.45000       -1.92300       -0.80300
H          3.23100       -2.55800        0.88700
H          0.96900       -3.00500        0.63700
H          1.00000       -2.66500       -1.11100
H          1.58100       -0.29600       -0.64200
H          1.64200       -0.58600        1.11600
H         -0.79400       -1.22700        1.00200
H         -0.82600       -0.93900       -0.73500
H         -0.25900        1.12100        1.50600
H         -0.23800        1.48900       -0.26300
H         -2.29700        2.19000        0.57200
H         -2.60300        0.80800       -0.44500
H         -2.45600        0.45700        2.60300
H         -2.83300       -0.73400        1.32600
H         -4.93500       -0.19100        2.02400
H         -4.74800        0.62800        0.48600
H         -6.06200        1.89900        1.74800
H         -5.17400        1.80000        3.26100
H         -5.37700        4.04300        2.21800
H         -4.49000        3.55500        0.78600
H         -2.46300        3.20400        2.44300
H         -3.60800        3.73500        3.74600
H         -2.17100        5.56700        2.94300
H         -3.95900        5.86900        2.66800
H         -3.59200        5.18100        0.25200
H         -1.85300        4.99900        0.61500
H         -3.42400        7.61700        0.91400
H         -1.67400        7.36300        1.26700
H         -3.09100        6.96200       -1.43500
H         -2.00400        8.34400       -0.93200
H         -1.24400        5.46100       -1.54400
H         -0.62900        6.97900       -2.21500
H         -0.20200        6.52500       -0.46800
H         -0.76100       -4.71300       -0.17300
H         -3.15500       -4.19700        0.06200
H         -3.57600       -5.83300       -0.60800
H         -2.15600       -5.45100       -2.58100
H         -1.67800       -3.84800       -1.96100
H         -3.92000       -3.06400       -1.99200
H         -4.58800       -4.73400       -2.37600
H         -3.36700       -4.62100       -4.52100
H         -4.61700       -3.35900       -4.41000
H         -2.40600       -2.52400       -5.37400
H         -1.59600       -3.15200       -3.91700
H         -2.57700       -1.45200       -2.53600
H         -3.61400       -0.81900       -3.81500
H         -0.57900       -1.02900       -3.72800
H         -1.46200       -0.54500       -5.20200
H         -2.35600        1.44500       -3.87400
H         -1.39300        0.87900       -2.47000
H         -0.24500        1.71800       -5.17000
H          0.66400        1.05900       -3.78500
H         -1.21500        3.54800       -3.82700
H         -0.35400        2.95900       -2.40500
H          0.86200        4.18800       -5.01000
H          0.84800        4.85800       -3.37200
H          2.13600        3.03500       -2.42800
H          2.25700        2.23700       -4.00600
H          3.42100        5.01100       -3.59100
H          3.55300        3.99100       -5.02700
H          4.62700        2.14400       -3.79500
H          4.47000        3.02300       -2.24600
H          6.18500        3.77100       -4.70900
H          6.70400        3.10600       -3.14200
H          6.00700        5.22300       -2.00300
H          5.37300        5.80400       -3.62400
H          8.31400        5.10600       -3.02200
H          7.64000        6.75000       -3.09200
H          7.63400        5.73800       -4.55300
H          2.56000       -7.14400       -0.14700
H         -0.44000       -6.31900       -1.62500
H         -3.71200       -3.23800        6.50800
H         -0.84400       -5.64400        5.95100
H         -1.71400       -2.92600        4.23200
