149
1ln1_DLP_conf24.pdb
C          4.41700        3.10300       -1.90600
C          4.54900        1.78100       -2.59200
C          5.42900        0.91100       -1.73400
C          3.51800        5.80600        2.16100
C          2.33000        6.25200        2.97300
C          1.19900        7.67700        1.48900
C          0.03100        6.50700        3.16200
C          0.82600        5.32600        1.31000
C          5.63800       -0.13400        0.34600
C          4.81700       -1.14300        1.05600
C          4.04400       -2.09200        0.19500
C          3.24400       -3.00300        1.13400
C          2.39600       -3.99200        0.39500
C          1.58700       -4.85500        1.33400
C          0.69900       -5.84700        0.61000
C         -0.07800       -6.63600        1.64400
C         -1.02400       -7.64200        1.02800
C         -2.03000       -6.96400        0.12500
C         -3.03000       -7.91000       -0.48900
C         -3.84200       -8.63400        0.57200
C         -4.54700       -7.55800        1.38600
C         -5.41800       -8.11300        2.47900
C         -6.06000       -6.93200        3.21100
C         -5.06000       -6.01600        3.83700
C         -5.75500       -4.85900        4.55400
C         -4.71900       -3.95200        5.17200
C          3.09000        1.04200       -4.17200
C          1.75300        0.83500       -4.68500
C          0.62400        1.70900       -4.32700
C          0.74700        3.18500       -4.52300
C         -0.61100        3.78200       -4.23700
C         -1.15300        3.38300       -2.89100
C         -2.53700        4.02700       -2.67500
C         -3.20400        3.58800       -1.43700
C         -2.52800        3.87600       -0.12000
C         -3.44100        3.24500        0.92200
C         -3.08100        3.35800        2.31300
C         -1.87600        2.91200        2.97500
C         -1.34700        1.56700        3.10500
C         -0.81200        0.72100        2.04400
C         -1.69000        0.33300        0.93200
C         -0.92400       -0.67000       -0.01600
C         -1.84800       -1.03700       -1.13300
C         -1.23500       -1.99500       -2.12100
N          1.13500        6.39500        2.20200
O          3.34000        1.10100       -2.80900
O          4.90400        0.69600       -0.48500
O          6.22400        0.66900        1.38600
O          3.75800       -0.25600       -4.57100
O          5.67700        4.56000        1.57800
O          4.22900        5.31300       -0.85800
O          3.84400        3.11700       -0.67500
O          3.33400        4.58300        1.56000
P          4.47900        4.25100        0.40000
H          3.89000        3.85000       -2.57800
H          5.43700        3.58400       -1.78500
H          4.96500        1.91600       -3.62400
H          5.62300       -0.09100       -2.20300
H          6.45000        1.36200       -1.64400
H          3.69200        6.60000        1.39800
H          4.38100        5.75700        2.88300
H          2.54100        7.23600        3.44400
H          2.13200        5.54300        3.82800
H          1.73500        7.48400        0.52500
H          0.20500        8.05000        1.23100
H          1.83700        8.38800        2.04400
H         -0.93500        6.59700        2.63800
H          0.15700        7.42100        3.77900
H         -0.01600        5.64500        3.83300
H          1.29100        5.36100        0.32400
H          1.08100        4.33800        1.76900
H         -0.28400        5.34300        1.11100
H          6.50800       -0.57200       -0.14400
H          4.14900       -0.65500        1.81000
H          5.50300       -1.77600        1.68700
H          3.39100       -1.50500       -0.46400
H          4.69200       -2.75400       -0.38800
H          4.00900       -3.50600        1.77900
H          2.60200       -2.41000        1.81200
H          3.05600       -4.65700       -0.17400
H          1.74200       -3.44300       -0.30600
H          2.19300       -5.37800        2.07700
H          0.86100       -4.17300        1.87100
H          1.25600       -6.50900       -0.05600
H         -0.06200       -5.26900        0.01500
H          0.60400       -7.18600        2.32100
H         -0.69500       -5.97200        2.28500
H         -0.40300       -8.35500        0.45700
H         -1.55900       -8.20700        1.81400
H         -2.50300       -6.08900        0.56400
H         -1.41400       -6.57500       -0.74100
H         -3.74900       -7.28000       -1.06000
H         -2.56800       -8.61900       -1.19300
H         -3.21900       -9.26900        1.22200
H         -4.60600       -9.24400        0.07300
H         -3.74200       -6.96500        1.87600
H         -5.13200       -6.88000        0.75800
H         -4.84400       -8.67200        3.24000
H         -6.26400       -8.71600        2.10300
H         -6.77900       -7.27000        3.98200
H         -6.65600       -6.32700        2.46400
H         -4.42600       -5.52000        3.05000
H         -4.39600       -6.52300        4.53900
H         -6.30700       -4.22600        3.80400
H         -6.49500       -5.19300        5.29400
H         -4.92200       -3.83200        6.27100
H         -4.66600       -2.95800        4.69400
H         -3.68800       -4.39500        5.08300
H          3.74500        1.69600       -4.75000
H          1.40100       -0.23400       -4.42900
H          1.81600        0.77700       -5.82800
H         -0.25500        1.39700       -4.97100
H          0.33700        1.57900       -3.24100
H          1.48800        3.65800       -3.85200
H          0.97600        3.39800       -5.60000
H         -0.60200        4.89100       -4.34100
H         -1.35300        3.37800       -4.99000
H         -1.39300        2.28600       -2.87800
H         -0.53600        3.70200       -2.03400
H         -2.43800        5.15400       -2.65400
H         -3.19600        3.81200       -3.52800
H         -4.27600        3.96600       -1.37500
H         -3.38100        2.46700       -1.54900
H         -1.49300        3.55500       -0.07500
H         -2.53700        4.99500       -0.00000
H         -4.41000        3.86800        0.79000
H         -3.83000        2.24100        0.56700
H         -3.36500        4.42900        2.64700
H         -3.94900        2.80300        2.88300
H         -2.01500        3.27600        4.09000
H         -0.97000        3.58300        2.70000
H         -0.58100        1.54200        4.00400
H         -2.17300        0.92100        3.66600
H         -0.44100       -0.25900        2.49900
H          0.13700        1.24100        1.66100
H         -1.87500        1.15200        0.20300
H         -2.55700       -0.22500        1.27300
H         -0.65600       -1.49900        0.63900
H         -0.02000       -0.19800       -0.40900
H         -2.17900       -0.08400       -1.61600
H         -2.73000       -1.56600       -0.68500
H         -1.32700       -3.01600       -1.70800
H         -1.74200       -1.96300       -3.10900
H         -0.18400       -1.66400       -2.27400
H          6.90900        0.07600        1.82800
H          3.63700       -0.31100       -5.54400
H          6.53900        4.44600        1.08500
H          3.37400        5.79600       -0.78100
H          3.59700        3.46200        1.16000
