149
1ln1_DLP_conf48.pdb
C         -3.48600        2.80600        1.01000
C         -3.00800        1.39000        0.95900
C         -2.37700        1.05300        2.31600
C         -6.98600        5.61400        0.48300
C         -8.01000        6.19800        1.38700
C         -7.71300        4.81800        3.31900
C         -9.35300        4.24700        1.66300
C         -9.65900        6.08900        3.04300
C         -1.05400       -0.59100        3.36600
C         -1.14600       -2.08100        3.23100
C         -0.31100       -2.60500        2.08500
C         -0.55600       -2.00000        0.75100
C          0.33900       -2.64700       -0.33000
C          0.15700       -2.01800       -1.66700
C          0.54300       -0.54400       -1.65500
C          1.98500       -0.38300       -1.31000
C          2.39200        1.07500       -1.24800
C          3.88800        1.11000       -0.94400
C          4.45300        2.47900       -0.78100
C          5.95700        2.36500       -0.53300
C          6.57300        3.70200       -0.28600
C          5.94700        4.35200        0.96500
C          6.19500        3.38800        2.09100
C          5.64400        3.88300        3.43200
C          5.92300        2.81600        4.47800
C          5.44600        3.17000        5.84700
C         -3.96000       -0.36100       -0.39000
C         -4.58000        0.19700       -1.70700
C         -4.68200       -0.83500       -2.74500
C         -3.45500       -1.63900       -3.06700
C         -3.67400       -2.55400       -4.22500
C         -2.56800       -3.50500       -4.55000
C         -2.32300       -4.55300       -3.48100
C         -1.28400       -5.53700       -3.82800
C          0.12800       -5.09600       -3.97300
C          0.98900       -6.24300       -4.47300
C          2.43300       -5.97700       -4.58600
C          2.86800       -4.81600       -5.40200
C          4.36600       -4.74500       -5.51600
C          5.15000       -4.71900       -4.27500
C          4.89700       -3.60400       -3.30500
C          5.84200       -3.81800       -2.14400
C          5.73500       -2.82200       -1.04500
C          4.36400       -2.81400       -0.39700
N         -8.63800        5.31600        2.31100
O         -3.95000        0.56100        0.55500
O         -1.58600       -0.04100        2.24100
O          0.35300       -0.24600        3.42600
O         -4.60200       -1.50800       -0.08500
O         -5.50900        5.06400       -1.45600
O         -4.43200        6.31500        0.65000
O         -3.91600        3.26000       -0.22600
O         -5.89800        5.03600        1.07100
P         -4.63900        4.77700       -0.02000
H         -2.67600        3.43300        1.43900
H         -4.31400        2.83500        1.75900
H         -2.08300        1.38900        0.26400
H         -3.23100        0.96700        3.02800
H         -1.79000        1.93700        2.63000
H         -6.60800        6.44100       -0.18100
H         -7.44700        4.87500       -0.21100
H         -7.61100        7.08600        1.92200
H         -8.83000        6.60400        0.71800
H         -7.42900        3.76300        3.08000
H         -8.18000        4.86800        4.33100
H         -6.79600        5.43400        3.38300
H         -9.84900        4.58500        0.74500
H         -8.64300        3.44800        1.40900
H        -10.08700        3.77200        2.36300
H        -10.27300        5.34300        3.57500
H         -9.19700        6.83200        3.71600
H        -10.33800        6.57300        2.28900
H         -1.44300       -0.20100        4.28200
H         -0.78300       -2.61200        4.13900
H         -2.18200       -2.43700        3.08200
H          0.77000       -2.63400        2.36900
H         -0.57900       -3.70000        1.99000
H         -0.29200       -0.90700        0.72300
H         -1.59100       -2.20600        0.43900
H         -0.03100       -3.69300       -0.40400
H          1.38200       -2.70000       -0.03200
H         -0.82300       -2.11900       -2.11600
H          0.93400       -2.49600       -2.34900
H         -0.12300        0.01400       -1.00400
H          0.42100       -0.14300       -2.70600
H          2.22000       -0.87900       -0.32600
H          2.60000       -0.86900       -2.08400
H          2.21200        1.60000       -2.20700
H          1.84900        1.63500       -0.46400
H          4.04200        0.46700       -0.03900
H          4.37100        0.55100       -1.76900
H          4.31700        3.03200       -1.70900
H          3.95000        2.97700        0.07400
H          6.35900        2.02700       -1.54100
H          6.21200        1.57900        0.18200
H          6.35700        4.38700       -1.12800
H          7.65900        3.65100       -0.09600
H          4.90200        4.63100        0.80200
H          6.54000        5.26700        1.19500
H          5.58600        2.46100        1.86400
H          7.26400        3.16600        2.13600
H          6.19400        4.80500        3.68900
H          4.57800        4.13400        3.35100
H          7.00500        2.62900        4.48700
H          5.42600        1.86400        4.16200
H          4.42500        3.54800        5.88700
H          6.19400        3.82200        6.34100
H          5.45100        2.20600        6.43800
H         -2.92100       -0.62100       -0.79000
H         -5.59500        0.53400       -1.43300
H         -3.97900        1.07000       -2.03900
H         -5.46400       -1.59700       -2.44700
H         -5.08500       -0.44300       -3.72000
H         -2.58600       -0.99100       -3.28100
H         -3.17000       -2.29900       -2.19500
H         -4.61000       -3.17600       -4.07600
H         -3.89600       -1.97900       -5.16800
H         -1.64100       -2.92200       -4.75000
H         -2.81800       -4.03500       -5.47800
H         -3.29700       -5.12000       -3.39500
H         -2.19700       -4.08100       -2.47300
H         -1.28800       -6.31700       -3.02100
H         -1.65200       -6.10400       -4.72500
H          0.19500       -4.28400       -4.70900
H          0.55700       -4.70300       -3.01500
H          0.83600       -7.07000       -3.75200
H          0.61900       -6.62800       -5.45000
H          2.93900       -5.88300       -3.59100
H          2.90900       -6.89200       -5.03400
H          2.48300       -4.91500       -6.45300
H          2.53900       -3.82900       -4.96200
H          4.69000       -3.91300       -6.18700
H          4.66000       -5.68300       -6.08800
H          6.24200       -4.58300       -4.58600
H          5.17600       -5.71500       -3.76600
H          5.10800       -2.64300       -3.76600
H          3.82400       -3.62500       -3.01100
H          5.75100       -4.83000       -1.69700
H          6.87300       -3.76800       -2.55300
H          5.96000       -1.79400       -1.40300
H          6.47100       -3.01500       -0.23400
H          3.53000       -2.90100       -1.11100
H          4.25700       -3.64100        0.35500
H          4.30400       -1.88500        0.20800
H          0.61100       -0.55100        4.33800
H         -5.57800       -1.38400       -0.15600
H         -6.06900        4.23200       -1.57800
H         -3.71000        6.31500        1.35800
H         -4.40500        5.85600       -0.92300
