149
1ln1_DLP_conf25.pdb
C         -0.56300       -3.45800        0.18900
C         -0.59800       -3.39500       -1.28500
C         -0.19600       -4.73900       -1.94000
C         -0.99000       -3.14500        3.96800
C         -1.75900       -2.27300        4.89400
C         -1.06600       -3.46000        6.86300
C         -2.17400       -1.39600        7.02500
C          0.02400       -1.46700        6.28200
C         -1.09000       -6.70800       -2.80700
C         -1.32800       -6.60600       -4.32800
C         -0.30300       -5.66800       -5.01200
C          1.01900       -6.29400       -4.93600
C          2.25500       -5.69800       -5.43900
C          2.83100       -4.51600       -4.81900
C          2.12900       -3.22900       -4.90800
C          2.96900       -2.21600       -4.07300
C          2.34700       -0.87500       -4.18400
C          2.99300        0.18800       -3.29200
C          2.84400       -0.23200       -1.84200
C          3.39900        0.79800       -0.91900
C          4.84400        1.09600       -1.06400
C          5.31300        2.18500       -0.08400
C          5.07500        1.80000        1.35700
C          5.57000        2.92600        2.25400
C          5.37800        2.62600        3.70800
C          3.92900        2.42100        4.09300
C         -1.64000       -1.98100       -2.88600
C         -1.53100       -0.52200       -2.40200
C         -1.59500        0.42500       -3.55200
C         -1.27200        1.82100       -3.10900
C         -2.02700        2.37100       -1.96600
C         -3.48800        2.45200       -2.17600
C         -4.19200        3.03700       -0.92200
C         -4.01000        2.18100        0.28100
C         -4.55400        2.63800        1.57800
C         -4.02200        3.82400        2.24400
C         -4.07300        5.17100        1.62000
C         -5.47600        5.52700        1.33500
C         -5.80300        6.84600        0.75000
C         -5.33500        7.21000       -0.57500
C         -3.94600        7.31200       -0.98700
C         -3.03300        8.25100       -0.24500
C         -1.69000        8.13500       -0.99700
C         -1.87700        8.57700       -2.43500
N         -1.24200       -2.18500        6.22500
O         -1.67400       -2.83100       -1.85500
O         -1.29200       -5.46300       -2.26800
O         -1.96900       -7.63400       -2.30400
O         -2.50400       -2.18200       -3.89700
O          2.39500       -3.13600        2.83100
O          0.98000       -4.92600        3.08200
O          0.58400       -4.03500        0.73800
O          0.34600       -2.76100        3.77600
P          0.83100       -3.45400        2.31100
H         -1.41200       -4.09800        0.56500
H         -0.69200       -2.47600        0.69200
H          0.35700       -2.76200       -1.60100
H          0.60100       -4.63400       -2.66800
H          0.31900       -5.35400       -1.10200
H         -1.44400       -3.11100        2.96600
H         -0.97300       -4.18200        4.33700
H         -1.88200       -1.23200        4.52000
H         -2.79500       -2.67400        4.95900
H         -1.78100       -4.23700        6.53200
H         -0.05300       -3.87500        6.58300
H         -1.08500       -3.43700        7.96600
H         -2.89400       -2.04700        7.58400
H         -2.79900       -0.78900        6.33700
H         -1.63900       -0.69300        7.69900
H          0.15000       -0.97500        7.26700
H          0.09400       -0.73700        5.47500
H          0.86100       -2.22000        6.23400
H         -0.02300       -7.04200       -2.67600
H         -1.29400       -7.59300       -4.81300
H         -2.31900       -6.15900       -4.53200
H         -0.47200       -4.66000       -4.66800
H         -0.61400       -5.62800       -6.12300
H          1.17400       -6.63700       -3.85300
H          0.88900       -7.32000       -5.47900
H          2.09100       -5.54300       -6.57000
H          3.01900       -6.56100       -5.48900
H          3.89000       -4.40700       -5.27700
H          3.13200       -4.73500       -3.72300
H          1.12800       -3.19700       -4.50800
H          2.18700       -2.85400       -5.96900
H          3.98700       -2.29200       -4.44900
H          2.82900       -2.58100       -3.03000
H          2.44800       -0.46100       -5.23300
H          1.27500       -0.92000       -4.00000
H          4.04300        0.37800       -3.56500
H          2.42400        1.12700       -3.40100
H          1.79500       -0.44400       -1.58500
H          3.39700       -1.18000       -1.64100
H          2.76600        1.71900       -0.94800
H          3.24300        0.40400        0.12500
H          5.07100        1.47200       -2.07000
H          5.49900        0.20300       -0.87700
H          6.37900        2.32400       -0.30500
H          4.79500        3.11800       -0.35300
H          5.70700        0.91800        1.59300
H          4.01200        1.57300        1.55000
H          6.63500        3.08000        2.06500
H          5.05400        3.87900        2.00100
H          5.75500        3.49900        4.29200
H          5.97200        1.74200        4.02300
H          3.90100        2.26800        5.20100
H          3.50900        1.55400        3.56500
H          3.35300        3.33200        3.85900
H         -0.56200       -2.10300       -3.31200
H         -2.35200       -0.26300       -1.70300
H         -0.59200       -0.44700       -1.84300
H         -2.58900        0.40600       -4.06200
H         -0.79800        0.14300       -4.28100
H         -0.16600        1.92400       -2.95400
H         -1.46000        2.48900       -4.01200
H         -1.72800        1.87100       -1.00700
H         -1.64500        3.44100       -1.82500
H         -3.72000        3.15600       -2.98800
H         -3.94200        1.46700       -2.32000
H         -3.95600        4.09300       -0.82500
H         -5.28600        2.91500       -1.21500
H         -2.95600        1.79200        0.42100
H         -4.55900        1.20300        0.03300
H         -4.39800        1.77200        2.31800
H         -5.70100        2.65700        1.52200
H         -4.45700        3.84400        3.28800
H         -2.90900        3.62100        2.42300
H         -3.75600        5.90000        2.46100
H         -3.30400        5.29000        0.88900
H         -5.98900        4.72000        0.70100
H         -6.02700        5.36200        2.32700
H         -5.64300        7.67700        1.52300
H         -6.95000        6.87700        0.70200
H         -5.88800        8.15100       -0.96000
H         -5.81100        6.44100       -1.29600
H         -3.39800        6.36500       -1.15000
H         -3.93100        7.75100       -2.05700
H         -3.37100        9.26800       -0.43500
H         -2.78600        7.97400        0.77300
H         -0.88500        8.72500       -0.55700
H         -1.35400        7.05500       -0.99400
H         -0.87200        8.91900       -2.79600
H         -2.50100        9.49300       -2.42000
H         -2.19400        7.79000       -3.10800
H         -1.56100       -8.54400       -2.39300
H         -3.34700       -2.67500       -3.63200
H          3.10500       -3.58100        2.26700
H          1.57900       -5.57700        2.68700
H          1.20900       -2.32500        3.09700
