10
./arbalign_output/10-2-aligned_to-10-1.xyz
NE 0.2108624491 1.0542091531 -0.5680710481
NE 0.49690004 -0.0113638006 0.9797094772
NE -1.0793656577 -0.1993722088 0.045714454
NE 0.982807233 0.4872799293 0.0592913953
NE -0.2589177821 -0.7588555203 0.5897188552
NE -0.5934605346 0.2992711929 -0.8747047969
NE 0.6979178086 -0.5949645415 0.0461169915
NE -0.2605048345 -0.7092800042 -0.5217834017
NE 0.5050072403 0.0250945513 -0.8573317807
NE -0.6289416106 0.1923889073 1.0227125046
