300
./arbalign_output/100-2-aligned_to-100-1.xyz
O -38.604 -9.93 21.856
H -39.244 -10.484 22.225
H -39.19 -9.529 21.189
O -42.626 -10.359 20.966
H -41.839 -10.565 21.503
H -45.08 -9.239 22.151
O -36.57 -9.575 18.175
H -36.246 -9.613 19.121
H -39.926 -9.473 18.009
O -43.576 -8.402 29.093
H -44.073 -11.164 25.733
H -44.152 -8.105 29.816
O -37.362 -9.328 28.105
H -37.67 -8.731 28.786
H -36.343 -11.572 30.025
O -36.818 -10.88 15.593
H -36.483 -10.083 15.183
H -36.996 -10.595 16.497
O -36.318 -13.119 14.207
H -36.587 -12.272 14.682
H -40.832 -11.857 15.207
O -41.896 -3.025 19.177
H -39.125 -6.006 18.632
H -42.345 -4.59 17.846
O -37.309 -5.608 23.38
H -37.535 -6.386 22.823
H -37.772 -5.718 24.207
O -33.377 -13.86 17.143
H -33.122 -12.99 16.837
H -34.425 -17.849 18.751
O -40.387 -7.346 20.018
H -41.196 -5.062 21.396
H -40.764 -8.097 19.542
O -38.166 -6.517 25.923
H -39.016 -6.923 26.182
H -37.732 -6.29 26.749
O -35.131 -17.563 18.131
H -35.191 -14.124 17.117
H -36.106 -13.715 14.943
O -43.841 -13.797 23.004
H -44.135 -13.212 22.286
H -43.427 -14.511 22.516
O -43.485 -5.231 28.332
H -43.646 -7.584 25.701
H -44.02 -8.033 28.29
O -44.9 -7.913 15.813
H -41.571 -5.465 16.801
H -44.297 -8.693 15.806
O -42.084 -4.74 21.143
H -42.236 -3.991 21.717
H -43.754 -5.988 22.712
O -45.583 -11.803 15.132
H -45.122 -7.731 16.742
H -46.466 -11.885 14.672
O -44.534 -12.299 20.729
H -41.835 -12.699 18.823
H -43.834 -11.629 20.769
O -36.315 -3.734 18.907
H -39.05 -4.77 20.115
H -35.843 -4.605 18.906
O -46.795 -11.118 22.329
H -47.042 -12.005 22.284
H -46.047 -12.657 24.742
O -41.965 -12.729 24.646
H -42.74 -13.151 24.156
H -41.68 -13.498 25.208
O -44.125 -8.159 26.347
H -42.294 -10.266 27.261
H -43.804 -9.054 26.151
O -34.751 -9.033 15.404
H -34.262 -9.843 15.228
H -37.97 -7.657 16.611
O -36.694 -8.94 24.504
H -34.636 -8.175 20.679
H -35.784 -8.638 24.526
O -41.888 -13.096 29.235
H -41.652 -13.862 29.726
H -41.36 -12.42 29.65
O -31.715 -12.502 21.708
H -33.285 -14.322 20.154
H -32.021 -13.151 21.056
O -36.949 -4.418 27.509
H -36.652 -4.417 28.415
H -37.922 -4.258 27.539
O -32.217 -7.235 22.995
H -31.159 -9.094 23.904
H -32.315 -6.29 22.734
O -39.315 -8.883 17.511
H -39.88 -8.144 17.101
H -42.522 -9.644 17.9
O -44.823 -14.709 18.247
H -44.025 -14.144 18.237
H -44.56 -15.55 17.841
O -40.805 -13.34 20.644
H -41.784 -15.782 21.312
H -41.123 -12.665 21.305
O -34.451 -5.12 25.357
H -34.457 -4.936 24.412
H -35.249 -4.69 25.588
O -42.59 -12.767 18.212
H -42.185 -13.358 17.584
H -40.174 -14.65 19.358
O -34.908 -3.579 22.539
H -35.395 -2.896 22.072
H -35.676 -4.109 22.959
O -41.756 -4.229 26.401
H -43.692 -4.938 29.248
H -42.38 -4.493 27.067
O -43.558 -10.131 16.59
H -44.203 -10.757 16.386
H -45.301 -12.745 15.17
O -34.804 -6.077 18.559
H -37.496 -9.214 18.264
H -35.592 -6.597 18.294
O -34.83 -9.48 27.098
H -37.189 -8.141 24.585
H -34.869 -8.718 26.475
O -34.971 -13.06 23.593
H -34.441 -16.011 22.484
H -33.234 -15.635 23.301
O -41.794 -9.417 18.526
H -42.305 -9.714 19.306
H -43.242 -10.026 21.611
O -41.786 -5.387 17.778
H -42.28 -3.805 19.611
H -41.137 -6.734 19.989
O -34.11 -13.949 19.748
H -35.853 -17.126 21.34
H -34.81 -14.552 20.127
O -46.556 -15.703 20.303
H -45.756 -15.294 19.892
H -44.777 -12.248 19.75
O -38.047 -14.109 29.153
H -35.417 -13.649 27.632
H -36.925 -16.244 24.523
O -44.735 -14.979 26.099
H -45.13 -14.346 25.504
H -44.529 -15.772 25.572
O -41.783 -11.73 15.132
H -42.75 -10.554 16.273
H -42.035 -12.528 14.623
O -37.214 -7.043 16.623
H -34.336 -8.644 16.176
H -36.711 -7.122 15.85
O -31.03 -10.637 17.955
H -32.271 -7.956 17.941
H -31.339 -11.092 17.185
O -39.93 -18.256 22.341
H -39.797 -18.288 21.346
H -39.025 -18.148 22.615
O -46.955 -7.946 26.657
H -45.647 -6.938 23.763
H -46.958 -7.547 25.791
O -33.711 -7.934 20.349
H -34.351 -6.617 19.166
H -33.236 -7.544 21.114
O -40.276 -6.855 15.542
H -40.669 -7.588 14.996
H -40.161 -6.194 14.779
O -31.148 -10.079 23.817
H -31.167 -10.136 22.81
H -31.608 -7.531 22.293
O -36.281 -16.747 24.979
H -35.535 -16.317 24.399
H -33.379 -13.772 25.793
O -41.102 -6.626 29.241
H -42.299 -9.565 28.552
H -41.678 -7.338 28.85
O -39.715 -13.976 14.585
H -38.931 -13.902 14.046
H -40.461 -13.973 13.957
O -36.044 -14.333 16.66
H -32.436 -11.784 14.86
H -36.672 -14.058 17.327
O -41.718 -10.115 28.047
H -38.728 -14.317 29.793
H -42.274 -13.738 27.562
O -31.83 -11.915 15.69
H -33.177 -13.843 18.093
H -31.02 -11.626 15.317
O -44.07 -7.325 19.143
H -43.34 -7.411 18.541
H -44.04 -6.38 19.318
O -32.975 -8.483 17.558
H -33.554 -8.625 18.281
H -31.99 -10.492 18.35
O -32.553 -4.667 22.239
H -32.082 -4.112 21.574
H -33.423 -4.234 22.302
O -32.468 -13.545 25.632
H -34.091 -12.77 23.69
H -32.608 -12.532 25.441
O -39.925 -4.052 28.204
H -39.611 -3.165 27.931
H -39.542 -4.181 29.122
O -44.127 -6.665 23.259
H -41.932 -5.843 25.209
H -43.307 -6.901 23.728
O -37.194 -12.879 18.947
H -37.089 -11.93 18.745
H -32.886 -11.346 20.535
O -39.363 -14.966 18.889
H -36.447 -13.095 19.498
H -39.934 -13.648 21.026
O -38.685 -14.969 24.724
H -38.809 -14.186 25.344
H -39.289 -15.585 25.141
O -34.205 -7.973 24.966
H -33.419 -7.895 24.471
H -34.361 -7.011 25.105
O -38.844 -12.932 26.746
H -38.174 -13.244 27.374
H -39.505 -12.539 27.352
O -33.374 -11.01 25.376
H -34.035 -10.411 25.822
H -32.787 -10.455 24.848
O -38.228 -14.398 22.003
H -37.867 -13.483 22.002
H -38.518 -14.743 22.85
O -35.168 -13.839 26.755
H -35.244 -12.962 26.337
H -37.117 -12.512 29.187
O -40.217 -16.26 26.6
H -38.081 -14.894 28.576
H -40.552 -17.081 26.931
O -34.176 -15.57 23.338
H -36.821 -16.005 21.37
H -34.86 -14.012 23.399
O -33.208 -10.754 19.833
H -30.846 -12.852 22.001
H -33.358 -9.895 20.312
O -38.344 -11.174 24.479
H -38.505 -11.778 25.267
H -37.689 -10.481 24.72
O -38.352 -5.507 18.51
H -37.194 -3.943 18.597
H -37.902 -5.927 17.725
O -36.54 -11.763 29.072
H -37.223 -10.22 28.478
H -35.721 -9.553 27.373
O -42.705 -15.879 21.484
H -45.739 -13.899 23.179
H -42.81 -16.868 21.552
O -40.989 -8.682 13.553
H -40.29 -9.363 13.86
H -41.785 -9.22 13.385
O -41.104 -14.815 16.893
H -40.512 -14.647 16.138
H -40.437 -15.076 17.567
O -42.094 -6.799 25.183
H -40.965 -4.358 26.898
H -41.63 -7.079 25.967
O -45.065 -5.02 20.366
H -44.525 -4.423 20.926
H -45.604 -5.463 21.032
O -46.497 -14.015 23.768
H -47.191 -15.055 20.119
H -46.818 -14.916 23.528
O -44.494 -9.64 22.818
H -45.134 -10.194 23.187
H -46.448 -10.921 21.445
O -42.36 -14.403 26.902
H -43.312 -14.509 26.782
H -41.059 -15.683 26.724
O -45.932 -4.907 27.018
H -44.382 -5.163 27.929
H -46.339 -4.041 26.823
O -43.806 -10.385 13.505
H -44.697 -10.637 13.766
H -43.355 -10.709 14.282
O -38.228 -2.794 22.674
H -38.086 -3.715 22.89
H -42.302 -2.273 19.654
O -45.682 -11.948 25.428
H -45.982 -8.127 26.858
H -46.284 -11.234 25.238
O -45.93 -9.099 20.362
H -45.911 -9.778 19.633
H -45.188 -8.531 20.169
O -38.666 -17.652 19.54
H -35.43 -16.588 18.412
H -39.316 -17.954 18.882
O -46.111 -11.404 18.267
H -46.043 -11.382 17.326
H -46.886 -11.935 18.491
O -43.216 -10.785 25.965
H -42.667 -11.291 25.327
H -40.613 -9.011 27.266
O -39.41 -4.076 20.716
H -40.139 -3.767 20.182
H -38.707 -2.93 21.841
O -46.569 -6.91 24.141
H -45.65 -5.134 26.152
H -46.979 -6.334 23.528
O -35.928 -16.211 21.145
H -38.681 -16.683 19.524
H -38.694 -14.259 19.001
O -39.957 -8.312 27.004
H -41.482 -5.842 28.864
H -39.125 -8.815 27.041
