42
./arbalign_output/14-2-aligned_to-14-1.xyz
O 2.549754 -2.076161 1.120798
H 0.944132 -2.259841 0.203506
H 3.027683 -2.798359 1.547183
O 2.824223 1.978424 1.772161
H 3.269875 2.66371 2.28517
H 3.631144 0.768941 0.564612
O 1.364254 3.077751 -0.167357
H 1.697317 2.646712 -0.975977
H 2.261364 2.464152 1.107256
O -2.663953 -2.636553 -0.689631
H -3.404739 -1.723058 0.53937
H -2.685145 -2.121973 -1.518912
O 0.044647 -2.05454 -0.122801
H -0.664036 -1.062489 1.188574
H -1.710057 -2.706504 -0.493929
O 3.773095 0.151614 -0.180127
H 3.459483 -0.705894 0.167637
H 2.977147 0.80341 -1.503123
O 1.608028 -0.316749 2.88308
H 2.226773 -1.488744 1.861134
H 1.95646 0.556825 2.613987
O -3.614902 1.093819 -0.740475
H -2.006709 1.691055 -0.223939
H -3.840012 0.438874 -0.052604
O -2.505671 -0.688033 -2.789023
H -2.666624 -0.750244 -3.738454
H -3.428986 0.546049 -1.524397
O -0.053578 0.063885 -1.895955
H -1.565051 -0.408877 -2.694285
H 0.164398 -1.369806 -0.818602
O -3.699794 -1.046758 1.206411
H -1.959008 -0.622422 1.907961
H -4.442413 -1.447556 1.674781
O -1.053433 1.705681 0.031541
H -0.395285 0.72083 -1.236915
H 0.434574 2.778336 -0.10034
O 2.418995 1.274335 -2.181565
H 0.800277 0.441758 -2.194475
H 3.000139 1.437638 -2.934289
O -1.009388 -0.404085 1.835994
H 0.640822 -0.252165 2.769056
H -1.015493 1.06612 0.778842
