54
./arbalign_output/1ln1_DLP_conf9-aligned_to-1ln1_DLP.xyz
C -7.53 -0.488 0.851
C -3.017 3.92 1.284
C -1.052 3.347 2.731
C -7.637 1.757 1.644
C -7.175 3.195 1.494
C -6.122 1.118 -0.108
C -8.398 1.18 -0.548
C -0.362 5.693 -1.228
C -0.071 -3.995 2.63
C 4.187 -1.547 0.915
C 3.346 0.442 -0.31
C 2.524 1.828 -4.118
C 2.678 3.349 -3.978
C 3.546 -0.278 -4.855
C 3.768 1.215 -4.691
C 4.612 -2.421 -5.592
C 4.812 -0.887 -5.4
C 5.901 -2.949 -6.1
C 5.995 -4.381 -6.4
C 0.905 -6.066 -5.56
C 2.134 -5.859 -4.712
C 3.372 -5.737 -5.602
C 5.835 -5.414 -5.377
C 4.548 -5.538 -4.664
C 3.882 -2.987 1.34
C 2.343 -4.431 2.586
C -1.548 3.705 1.391
C -0.037 5.793 -2.649
C 1.214 5.277 -3.237
C 1.33 3.792 -3.375
C -0.304 4.47 -0.422
C 3.6 1.368 0.855
C 3.041 -0.978 0.121
C -2.498 -3.563 2.85
C 2.614 -3.008 2.183
C 1.086 -4.523 3.442
C -3.77 -3.488 3.582
C -1.303 -4.08 3.56
C -2.094 -1.427 5.747
C -1.021 0.764 5.139
C -1.223 2.158 4.685
C -2.335 -0.018 5.19
C -4.109 -2.531 4.62
C -3.347 -2.213 5.817
N -7.425 0.937 0.499
O -0.803 4.739 0.888
O 1.116 4.247 -0.195
O -1.757 2.358 3.42
O -5.996 4.956 0.067
O -5.842 3.299 1.226
O -2.102 2.734 5.655
O -3.574 5.016 1.908
O -5.706 6.126 2.555
P -5.257 4.852 1.565
