54
./arbalign_output/1ln1_DLP_conf32-aligned_to-1ln1_DLP.xyz-noHydrogens.xyz
C -0.949 2.311 3.608
C 0.469 1.941 3.297
C 2.406 2.156 4.524
C -5.232 5.302 4.094
C -3.588 6.995 3.802
C -3.934 5.309 2.129
C -5.568 6.965 2.507
C -1.741 4.48 -2.527
C -0.235 -6.265 2.288
C -1.695 -7.977 1.124
C -0.207 0.473 0.092
C -1.202 0.991 -0.932
C 1.595 5.537 -5.621
C 1.404 4.095 -5.899
C 1.929 3.762 -7.33
C 1.641 2.277 -7.504
C 2.115 1.732 -8.823
C 1.785 0.244 -8.924
C 0.533 -2.143 -10.18
C 0.316 -0.026 -8.846
C 0.039 -1.505 -8.916
C 0.241 -3.622 -10.224
C -0.641 -6.984 1.051
C -1.566 -9.236 1.857
C -1.351 -9.215 3.317
C -1.352 -10.671 3.869
C -1.994 3.026 -2.151
C -0.005 5.969 -3.635
C 1.311 6.109 -4.305
C -0.369 4.588 -3.204
C -1.028 2.475 -1.156
C 0.652 1.817 1.797
C 0.855 -5.292 1.841
C 1.389 -4.443 2.935
C 2.008 -5.131 4.1
C 2.605 -4.088 5.084
C 2.978 -1.228 5.803
C 1.534 -3.189 5.534
C -1.15 -10.588 5.354
C 3.663 -0.052 6.295
C 1.983 1.83 5.961
C -4.383 4.452 4.967
C 2.017 -2.065 6.514
C 3.005 1.152 6.791
N -4.537 6.137 3.156
O -0.285 -0.913 0.092
O 1.324 2.799 3.902
O 3.494 2.893 4.477
O -0.329 0.968 1.332
O -3.471 1.831 4.5
O -1.331 3.817 5.677
O -1.167 2.289 4.984
O -3.562 3.543 4.29
P -2.636 2.83 5.531
