54
./arbalign_output/1ln1_DLP_model_5_chainB_pH74-aligned_to-1ln1_DLP.xyz
C 0.946 3.993 0.257
C 4.635 3.384 -2.043
C 4.347 1.666 -0.446
C -0.108 4.935 -0.18
C 1.271 6.17 -1.693
C 0.076 4.255 -2.48
C -1.091 6.234 -1.883
C 3.972 3.098 -4.422
C 4.107 -2.958 -2.737
C 9.673 2.7 -2.514
C 9.029 3.108 -3.738
C 4.285 -0.346 -5.684
C 9.452 4.941 -5.198
C 8.45 4.557 -6.191
C 9.161 4.075 -7.35
C 7.73 2.179 -7.966
C 8.787 3.126 -8.158
C 7.503 1.507 -9.225
C 7.083 0.288 -9.361
C 6.737 -0.553 -8.212
C 7.339 -1.882 -8.364
C 7.054 -2.714 -7.176
C 8.057 -3.793 -7.049
C 9.425 1.29 -2.303
C 7.74 -4.72 -5.941
C 8.971 1.07 -0.92
C 4.811 3.818 -3.459
C 4.73 1.947 -4.957
C 3.86 1.082 -5.811
C 9.026 4.574 -3.87
C 3.138 -1.268 -5.643
C 3.495 -2.546 -4.983
C 3.214 -2.445 -3.605
C 7.636 0.451 -0.921
C 3.753 -3.007 -1.391
C 4.884 -3.475 -0.591
C 5.379 0.594 -0.257
C 4.771 -3.746 0.663
C 3.532 -4.408 2.647
C 3.516 -3.57 1.425
C 2.981 1.161 -0.044
C 2.305 -4.18 3.441
C 2.032 -5.279 4.379
C 0.75 -5.055 5.137
N 0.03 5.406 -1.543
O 4.287 2.084 -1.782
O 6.655 1.186 -0.407
O 7.46 -0.641 -1.332
O 4.805 4.141 -1.146
O 0.556 0.534 1.445
O 1.151 2.402 2.958
O 2.643 1.832 1.11
O 0.372 2.847 0.678
P 1.16 1.854 1.604
