54
./arbalign_output/1ln1_DLP_conf19-aligned_to-1ln1_DLP.xyz
C -3.283 0.644 2.488
C -1.803 1.058 2.298
C -0.287 0.208 0.774
C -1.803 2.502 2.821
C -2.728 2.675 -1.536
C -2.346 1.835 -2.728
C -4.676 1.954 -3.281
C -3.251 0.624 -4.579
C 1.544 1.914 1.165
C 0.972 -4.929 0.757
C 2.786 2.604 0.591
C 4.553 4.314 1.157
C 4.929 6.367 -2.827
C 5.848 5.389 -3.493
C 5.199 4.979 -4.801
C 3.515 1.852 -6.352
C 4.026 3.08 -6.905
C 5.37 3.634 -6.848
C 6.039 4.001 -5.588
C 3.438 1.52 -4.925
C 4.706 1.372 -4.174
C 5.24 -1.646 -1.56
C 4.121 -2.196 -0.668
C 1.962 -4.239 -0.149
C 4.361 -3.649 -0.388
C 3.347 -4.304 0.479
C -3.803 -0.041 -2.424
C 4.323 5.22 -0.02
C 5.388 6.914 -1.531
C 5.592 5.967 -0.407
C 3.355 3.564 1.609
C 0.952 0.895 0.237
C -0.415 -4.94 0.179
C -2.762 -5.627 0.403
C -1.397 -5.653 1.082
C -3.776 -6.385 1.184
C -4.859 -4.608 2.659
C -4.147 -5.967 2.528
C -5.182 -4.548 4.146
C -6.001 -3.482 4.656
C -4.7 0.785 4.392
C -5.77 -2.055 4.703
C -4.598 -1.539 5.515
C -4.777 -0.055 5.6
N -3.505 1.124 -3.238
O -1.635 3.372 -1.019
O -1.352 0.986 1.032
O -0.633 -0.786 -0.153
O -0.798 4.496 -0.272
O -3.507 0.825 3.805
O -4.993 2.123 4.866
O -2.622 3.305 2.084
O -2.432 4.856 1.743
P -2.023 3.759 0.577
