54
./arbalign_output/1ln1_DLP_model_30_chainB_pH74-aligned_to-1ln1_DLP.xyz
C 4.309 0.029 -1.939
C 5.617 0.26 -2.681
C 6.781 0.286 -1.739
C 1.638 1.52 -3.89
C 0.506 1.214 -4.797
C 1.187 -1.102 -5.052
C -0.445 -0.164 -6.481
C 1.821 0.524 -6.689
C 5.659 -5.671 -2.57
C 10.074 -6.988 -2.673
C 11.071 -0.484 -3.639
C 10.125 0.581 -3.276
C 10.361 -0.033 -5.922
C 10.817 -1.04 -4.971
C 9.667 -0.689 -7.047
C 10.725 -3.252 -8.352
C 10.574 -0.9 -8.185
C 10.145 -2.083 -8.946
C 10.029 -4.424 -8.291
C 10.355 -5.24 -7.153
C 10.037 -6.636 -7.394
C 9.882 -7.466 -6.376
C 9.545 -6.935 -5.033
C 10.298 -7.64 -3.984
C 11.254 -7.157 -1.792
C 11.03 -6.59 -0.437
C 5.647 -0.4 -4.945
C 5.565 -2.702 -5.888
C 6.143 -1.351 -5.996
C 6.321 -3.452 -4.86
C 9.064 0.097 -2.352
C 6.04 -4.925 -4.907
C 6.633 -5.593 -3.696
C 5.857 -4.575 -0.526
C 6.325 -5.689 -1.261
C 6.785 -3.794 0.064
C 6.276 -2.747 0.856
C 7.379 -2.112 1.575
C 7.19 -1.164 2.437
C 5.856 -0.565 2.731
C 5.808 -0.102 4.141
C 4.478 0.505 4.455
C 4.263 0.584 5.911
C 2.903 1.123 6.249
N 0.76 0.129 -5.754
O 5.786 -0.756 -3.631
O 7.903 0.749 -2.459
O 9.238 -0.774 -1.568
O 5.16 0.649 -5.241
O 1.418 0.901 -2.683
O 1.865 0.482 -0.297
O 3.731 1.273 -1.743
O 1.893 2.802 -1.193
P 2.207 1.385 -1.405
