54
./arbalign_output/1ln1_DLP_conf6-aligned_to-1ln1_DLP.xyz
C -3.516 3.234 2.345
C -0.837 1.384 4.467
C -2.097 -0.762 4.576
C -5.456 3.456 3.709
C -4.38 5.416 2.898
C -2.896 5.718 3.051
C -5.52 3.975 1.441
C -0.813 4.011 -2.535
C 1.722 1.295 3.106
C 1.713 -0.154 2.839
C 0.86 -0.234 0.426
C 3.6 2.668 -3.952
C 1.757 4.884 -5.183
C 4.354 0.344 -3.54
C 4.825 1.722 -3.91
C 3.378 -0.265 -4.49
C 4.017 4.024 -4.36
C 1.896 -4.854 -7.204
C 3.646 -3.241 -6.484
C 2.961 -1.653 -4.114
C 1.185 -6.151 -6.892
C 4.696 -2.823 -5.475
C 2.964 -4.531 -6.162
C 4.062 -2.664 -4.094
C 0.507 -6.089 -5.554
C -0.069 -7.269 5.374
C 0.234 3.841 0.256
C 0.131 4.807 -3.367
C 0.731 4.013 -4.531
C 3.001 5.099 -4.413
C -0.709 2.877 -0.56
C -0.576 1.507 -0.044
C 1.83 -0.64 1.456
C 1.601 1.503 4.625
C -2.213 -6.041 4.899
C 0.613 -6.045 5.941
C 0.349 0.827 5.168
C -1.549 -7.281 5.581
C -3.675 -6.087 5.123
C -3.292 -2.945 4.599
C -2.137 0.705 4.89
C -3.392 -1.426 4.949
C -4.576 -5.085 4.565
C -4.54 -3.654 4.93
N -4.68 4.048 2.631
O -0.159 2.964 -1.861
O 0.749 1.083 0.084
O 1.307 -0.881 -0.774
O -1.721 3.419 -3.46
O 0.779 6.525 1.921
O -2.257 5.378 1.873
O -0.272 3.918 1.556
O -1.542 5.983 0.614
P -0.577 5.54 1.944
