54
./arbalign_output/1ln1_DLP_conf21-aligned_to-1ln1_DLP.xyz
C -6.184 -0.838 2.134
C 0.203 3.312 2.231
C 0.187 2.686 3.642
C -8.17 0.659 2.394
C -8.769 0.388 1.059
C -0.958 6.025 0.549
C -9.554 1.626 0.596
C -0.805 5.162 -0.671
C 1.926 -0.253 4.622
C -0.133 2.135 1.315
C -2.428 -1.773 -3.301
C -4.638 -1.753 -4.07
C 1.939 3.581 -2.693
C 2.022 2.675 -3.916
C 3.464 2.302 -4.159
C 5.187 1.037 -5.443
C 3.689 1.394 -5.325
C 6.059 2.216 -5.661
C 7.55 1.852 -5.737
C 7.958 1.245 -4.415
C 9.424 0.844 -4.365
C 9.686 0.299 -2.99
C 8.843 -0.881 -2.632
C 9.206 -1.338 -1.215
C 8.38 -2.524 -0.789
C -0.806 -5.161 2.845
C -0.307 5.494 1.77
C 0.593 4.862 -1.065
C 0.548 3.964 -2.314
C -3.562 0.246 -3.6
C -3.644 -0.279 -0.793
C -4.198 -1.218 -1.8
C 1.044 -3.514 2.933
C 1.001 -1.148 3.859
C 1.752 -2.439 3.637
C -0.148 -4.121 3.685
C 1.471 1.151 4.845
C -1.88 -5.969 3.428
C -3.078 -5.377 4.005
C -3.952 -4.512 3.135
C -5.346 -1.896 2.83
C -7.361 -0.446 3.003
C -5.161 -4.05 3.92
C -6.083 -3.141 3.179
N -3.707 -1.116 -3.129
O -0.806 0.312 -0.557
O 1.28 1.848 3.691
O 2.569 1.835 5.49
O -2.27 -0.426 -0.655
O -0.828 4.223 2.113
O -1.347 1.627 1.768
O -2.885 1.807 0.689
O -0.595 6.335 2.837
P -1.868 0.443 0.738
