54
./arbalign_output/1ln1_DLP_model_38_chainB_pH74-aligned_to-1ln1_DLP.xyz
C 4.252 3.603 0.785
C 4.162 5.022 -1.103
C 5.545 3.112 1.356
C 0.125 4.443 0.138
C -1.076 4.773 -0.651
C 0.056 6.368 -2.033
C -2.026 5.437 -2.697
C -0.088 4.076 -2.732
C 8.67 5.011 0.941
C 5.497 -0.56 -2.304
C 5.207 0.871 -4.241
C 5.75 2.258 -4.108
C 8.724 7.769 -3.814
C 8.557 7.383 -5.221
C 9.299 6.216 -5.485
C 8.633 4.13 -6.421
C 9.182 5.416 -6.495
C 9.34 3.262 -7.309
C 9.574 2.025 -7.061
C 9.192 1.382 -5.809
C 6.037 -0.135 -3.586
C 10.15 0.322 -5.519
C 9.889 -0.298 -4.216
C 11.145 -0.519 -3.495
C 11.024 -1.568 -2.462
C 6.599 -0.76 -1.458
C 4.155 5.222 -2.583
C 5.23 4.476 -3.25
C 8.379 6.642 -2.947
C 4.705 3.146 -3.582
C 8.423 6.985 -1.527
C 9.537 6.341 -0.883
C 9.189 5.003 -0.436
C 7.767 3.857 1.116
C 6.716 -0.709 -0.245
C 5.804 -0.885 0.777
C 6.572 -0.892 1.995
C 6.17 -1.019 3.182
C 4.803 -1.106 3.666
C 4.852 -1.392 5.119
C 3.139 2.627 1.064
C 3.512 -1.746 5.652
C 3.384 -3.174 5.89
C 2.173 -3.491 6.718
N -0.793 5.17 -2.017
O 4.355 3.76 -0.605
O 6.479 4.163 1.222
O 8.181 2.753 1.175
O 3.999 5.935 -0.369
O 0.756 1.325 2.024
O 0.109 3.501 3.044
O 2.198 3.332 1.796
O -0.004 3.184 0.623
P 0.744 2.791 1.938
