54
aligned by ArbAlign
C       48.376463    49.521564    19.221732
C       48.618047    47.474976    17.846811
C       48.461398    44.929256    21.599111
C       50.073283    54.144893    18.783380
C       47.699318    54.400837    18.479419
C       47.415479    52.946105    18.460252
C       49.161383    56.201387    18.051038
C       49.164381    54.343412    16.581213
C       54.955747    49.041997    19.154106
C       56.232799    45.087563    18.533010
C       56.869375    46.826392    16.958129
C       51.124085    45.235694    14.680006
C       49.676838    45.379378    14.966132
C       51.927828    47.102247    13.431579
C       54.068095    48.706865    12.193308
C       51.447006    45.743038    13.351998
C       51.773770    47.859635    12.181429
C       52.984922    48.103994    11.438844
C       55.194635    47.819543    12.116881
C       56.030256    47.474470    13.058856
C       56.256837    48.112973    14.308541
C       57.554766    47.732430    14.795381
C       57.853043    47.209852    15.951137
C       57.290512    45.607432    17.658547
C       56.301382    43.617805    18.645608
C       55.350516    43.066699    19.626453
C       48.727584    48.965902    17.863593
C       51.490524    50.862027    16.204417
C       50.159121    50.223509    16.450662
C       49.447967    45.796072    16.365255
C       52.608315    49.945787    16.317642
C       53.128647    49.974620    17.691572
C       54.471230    49.390997    17.796831
C       53.996585    48.856688    20.232637
C       53.763617    47.454645    20.635440
C       51.682152    46.352384    21.028954
C       49.654040    45.200283    21.193606
C       52.521790    47.357179    21.278731
C       50.381124    46.400739    21.547143
C       47.583433    45.857656    22.336020
C       46.656594    45.115341    23.228165
C       45.666788    46.032998    23.860340
C       45.165144    45.531783    25.129952
C       44.217886    46.474804    25.792661
N       49.003683    54.780383    17.972837
O       48.862937    46.986396    16.531622
O       50.017608    49.392489    17.529579
O       49.740682    45.096521    17.273167
O       49.228499    50.438069    15.742846
O       47.494680    52.449899    19.725440
O       46.973407    50.836524    21.500923
O       47.102467    50.026666    19.151760
O       45.252374    51.470085    19.834893
P       46.652958    51.176114    20.113414
