54
./arbalign_output/1ln1_DLP_conf2-aligned_to-1ln1_DLP.xyz-noHydrogens.xyz
C -5.556 4.006 2.425
C -5.988 2.693 1.911
C -6.519 1.658 2.831
C -5.036 4.984 1.432
C -5.86 5.55 0.368
C -5.552 3.816 -1.423
C -6.512 4.702 -0.652
C -6.257 2.958 -2.447
C 3.347 -2.228 1.84
C 6.079 -0.251 -0.31
C 4.735 -0.488 -0.991
C 0.706 2.908 -1.805
C -0.139 3.774 -3.78
C 2.14 -2.05 -2.528
C 3.657 -0.125 -3.273
C 4.844 -0.096 -2.449
C 2.844 -1.311 -3.585
C 2.572 -4.495 -4.756
C 2.873 -5.938 -5.167
C 1.288 -3.202 -2.922
C 1.805 -4.436 -3.502
C 3.649 -6.707 -4.194
C 4.992 -6.205 -3.829
C 5.638 -7.145 -2.796
C 7.012 -6.667 -2.387
C 5.861 -1.928 1.636
C -5.253 2.067 -3.158
C -5.956 1.205 -4.19
C -4.9 0.325 -4.858
C -1.471 2.31 -2.525
C -1.046 4.52 -1.673
C 0.499 2.438 -0.407
C 6.05 -0.577 1.122
C 0.691 -0.476 2.095
C 4.697 -2.772 1.406
C 2.756 -0.754 3.578
C 1.301 -0.575 3.462
C -0.372 -0.816 5.01
C -1.528 -1.71 5.274
C -3.276 0.048 5.162
C -5.678 1.058 3.866
C -5.09 1.808 4.984
C -2.658 -1.045 6.054
C -4.377 0.744 5.877
N -0.512 3.406 -2.415
O 2.455 -3.371 1.737
O 0.574 -1.51 4.218
O 3.318 -1.923 3.172
O -0.422 1.392 -0.28
O -2.079 0.269 1.603
O 0.343 -0.656 6.29
O -0.657 -0.03 2.231
O -1.691 2.823 1.454
P -0.842 1.391 1.365
