54
./arbalign_output/1ln1_DLP_model_36_chainB_pH74-aligned_to-1ln1_DLP.xyz
C 1.253 -4.005 5.084
C 4.209 -1.457 4.334
C 1.514 -5.24 3.158
C 2.46 -0.547 2.851
C -3.707 0.301 8.576
C 2.123 1.694 0.064
C 1.743 2.064 -1.316
C 2.013 1.792 -3.64
C 6.09 -2.594 5.156
C 5.131 -9.128 2.7
C 9.618 -3.491 2.794
C 4.748 -4.308 0.459
C 5.906 -2.239 0.155
C 9.739 -3.054 1.401
C 4.103 -5.46 -0.239
C 10.989 -3.542 0.831
C 4.972 -3.182 -0.463
C 10.7 -4.373 -0.341
C 9.618 -6.511 -0.644
C 8.567 -7.185 0.062
C 6.203 -8.8 0.549
C 10.381 -5.692 0.097
C 8.376 -8.488 -0.505
C 7.341 -9.235 -0.279
C 6.307 -9.427 1.87
C 5.398 -9.453 4.112
C 3.937 -0.848 2.997
C 2.315 -0.092 -2.228
C 3.914 1.685 -2.236
C 5.254 -1.257 1.072
C 2.141 -6.1 1.128
C 3.537 -6.422 0.761
C 8.236 -3.416 3.223
C 1.851 -6.425 2.509
C 8.136 -3.739 4.613
C 7.556 -2.611 5.331
C 1.665 -5.193 4.483
C 4.18 -9.311 4.944
C 1.544 -4.065 6.506
C 1.118 -3.19 7.34
C 0.271 -2.035 6.99
C -1.615 -0.729 7.809
C -0.467 -1.594 8.186
C -2.58 -0.629 8.916
N 2.485 1.373 -2.353
O 4.315 -1.715 1.962
O 5.608 -1.549 4.502
O 5.394 -3.448 5.592
O 5.546 -0.109 1.049
O 2.342 0.824 2.828
O -0.139 0.756 2.827
O 1.014 1.371 0.764
O 1.075 2.912 2.659
P 1.018 1.49 2.322
