54
./arbalign_output/1ln1_DLP_model_25_chainB_pH74-aligned_to-1ln1_DLP.xyz
C 0.648 3.992 0.983
C 2.889 2.421 -2.45
C 2.918 0.71 -0.805
C -0.208 5.196 0.873
C -0.913 4.647 -1.361
C 0.937 6.104 -1.03
C -1.248 6.821 -0.482
C 1.513 2.408 -4.542
C 0.037 -2.615 -3.1
C 5.471 -1.029 -2.449
C 7.066 1.492 -5.118
C 2.057 -1.452 -8.858
C 6.006 3.273 -8.13
C 2.017 -0.658 -10.102
C 4.327 1.952 -9.284
C 3.929 0.574 -9.35
C 2.81 0.381 -10.245
C 5.573 2.099 -8.8
C 7.03 2.89 -7.15
C 1.871 -2.878 -9.168
C 1.936 -3.7 -7.944
C 2.613 -4.982 -8.214
C 6.525 0.196 -5.508
C 6.776 -0.877 -4.529
C 2.452 -5.955 -7.107
C 6.651 -0.457 -3.134
C 2.787 2.775 -3.899
C 1.578 1.007 -5.008
C 0.285 0.542 -5.595
C 6.406 2.606 -5.839
C -0.859 -1.56 -4.972
C 0.267 -0.951 -5.705
C -0.495 -2.857 -4.363
C 0.708 -3.613 -2.521
C 3.704 -0.554 -0.963
C 1.783 -4.563 -0.687
C 0.959 -3.461 -1.155
C 1.927 -4.832 0.57
C 1.556 -4.753 2.945
C 1.252 -4.085 1.655
C 1.718 0.494 0.076
C 0.54 -4.427 3.982
C -0.198 -5.62 4.419
C -0.883 -5.393 5.734
N -0.359 5.696 -0.486
O 2.488 1.171 -2.056
O 4.921 -0.216 -1.563
O 5.064 -2.122 -2.653
O 3.315 3.189 -1.658
O -0.355 0.61 2.076
O 1.13 2.132 3.347
O 1.817 1.388 1.126
O -0.1 2.944 1.394
P 0.605 1.709 2.053
