54
./arbalign_output/1ln1_DLP_conf43-aligned_to-1ln1_DLP.xyz
C -4.741 0.611 1.668
C -5.62 0.313 0.445
C -1.385 3.226 3.248
C -1.447 6.08 2.365
C -3.596 6.205 3.218
C -5.928 1.466 -0.407
C -3.191 4.936 1.322
C -4.738 2.178 -0.986
C 3.463 -3.258 1.162
C -1.894 -5.391 -3.85
C 0.456 -3.677 -3.32
C -1.355 -4.365 -4.808
C 4.978 4.248 -2.83
C 1.534 2.341 -4.964
C 2.494 1.416 -5.678
C 5.921 3.182 -3.396
C 4.472 2.949 -5.33
C 3.643 2.16 -6.287
C 5.122 2.176 -4.234
C 0.129 -4.146 -4.704
C 1.926 -3.404 -3.093
C 2.784 -4.624 -3.32
C 4.257 -4.312 -3.088
C 4.514 -3.829 -1.661
C 4.133 -4.858 -0.645
C 4.321 -4.465 0.781
C -3.834 1.313 -1.821
C -2.704 2.169 -2.334
C -0.584 2.37 -3.644
C 0.404 1.507 -4.403
C -1.685 1.424 -3.144
C -3.392 -5.557 -4.012
C -3.86 -6.616 -3.005
C -0.778 -1.327 2.005
C 3.76 -2.976 2.601
C 2.95 -1.8 3.147
C -1.555 -1.52 3.276
C 3.329 -1.578 4.58
C 2.666 -0.485 5.314
C -0.555 -1.567 4.411
C -4.555 -0.715 2.326
C -2.46 4.209 3.513
C 1.19 -0.542 5.513
C -3.71 -0.792 3.543
N -2.617 5.286 2.597
O 0.893 2.059 2.816
O 0.047 -0.258 2.127
O 0.364 -0.549 4.433
O -1.259 1.619 0.785
O -4.249 -0.164 4.606
O 0.83 0.607 6.269
O -2.377 -0.375 3.36
O -1.556 2.581 2.016
P -0.484 1.257 2.183
