54
./arbalign_output/1ln1_DLP_model_13_chainB_pH74-aligned_to-1ln1_DLP.xyz
C 2.311 -1.347 2.607
C 3.766 -1.666 2.327
C 4.266 -2.734 3.24
C 1.865 1.982 1.21
C 1.377 2.933 0.191
C 0.4 1.305 -1.304
C 1.001 3.462 -2.079
C 2.704 1.911 -1.528
C 6.153 -4.148 3.145
C 7.92 -4.779 1.626
C 3.809 -8.963 -2.141
C 2.123 -5.701 -1.264
C 3.651 -3.806 -1.497
C 4.494 -7.692 -4.088
C 9.043 -3.186 -2.805
C 7.954 -4.951 -3.721
C 5.457 -6.895 -4.42
C 7.61 -6.054 -4.176
C 9.167 -4.448 -3.447
C 6.761 -7.036 -3.869
C 9.202 -3.16 -1.372
C 4.724 -8.876 -3.264
C 8.405 -4.113 -0.602
C 4.323 -9.837 -1.098
C 3.486 -9.897 0.079
C 4.035 -10.842 1.092
C 4.642 -1.291 0.163
C 2.355 -4.391 -1.933
C 3.782 -2.386 -1.89
C 4.941 -1.803 -1.208
C 0.792 -5.861 -0.655
C 0.718 -5.693 0.767
C 8.233 -3.675 0.765
C 1.647 -6.439 1.489
C 7.618 -4.283 2.969
C 1.956 -6.284 2.72
C 1.27 -5.541 3.682
C 1.764 -5.912 4.987
C 1.481 -5.323 6.094
C 0.699 -4.096 6.275
C 0.229 -4.015 7.672
C -0.561 -2.792 7.922
C -1.287 -2.823 9.209
C -2.521 -3.68 9.119
N 1.37 2.416 -1.171
O 3.877 -2.065 0.991
O 5.648 -2.922 2.999
O 5.483 -5.076 3.435
O 5.066 -0.246 0.54
O -0.192 -0.123 3.482
O 1.155 1.854 4.141
O 2.278 -0.113 3.227
O 0.811 1.318 1.778
P 0.966 0.734 3.221
