54
./arbalign_output/1ln1_DLP_model_48_chainB_pH74-aligned_to-1ln1_DLP.xyz
C -1.786 1.88 -3.653
C 2.301 4.345 -3.473
C 3.126 3.263 -2.866
C -2.272 3.177 -1.689
C -3.945 2.813 -3.319
C 1.812 3.248 -5.514
C -2.127 4.255 -3.838
C 5.013 6.774 -8.386
C 5.161 4.573 -3.138
C 3.461 -0.203 -6.078
C 3.601 1.033 -6.883
C 6.469 4.634 -5.837
C 6.576 5.513 -7.002
C 4.629 3.015 -10.426
C 4.982 5.349 -10.214
C 5.621 2.087 -10.122
C 5.221 4.225 -10.754
C 5.886 0.981 -10.4
C 7.487 -0.522 -9.418
C 6.112 -0.312 -9.914
C 4.765 -0.752 -5.657
C 7.506 -0.724 -7.974
C 8.87 -0.765 -7.429
C 8.888 -0.985 -5.926
C 4.61 -1.802 -4.624
C 5.608 -1.681 -3.559
C 2.178 3.057 -6.938
C 5.469 6.497 -7.044
C 4.329 5.659 -8.996
C 2.277 1.603 -7.27
C 6.956 5.313 -4.644
C 6.638 4.509 -3.439
C 5.34 -0.588 -2.738
C 5.962 0.976 -1.056
C 6.251 -0.121 -1.868
C 7.076 1.311 -0.246
C 2.959 3.152 -1.345
C 7.051 1.709 0.972
C 5.883 1.837 1.836
C 6.311 1.963 3.233
C -0.868 3.539 -1.387
C 5.434 1.214 4.148
C 6.191 0.363 5.098
C 5.305 -0.399 6.017
N -2.539 3.033 -3.111
O 0.989 2.588 -4.978
O 4.644 5.61 -2.846
O 4.467 3.393 -3.219
O 2.453 4.253 -4.861
O 1.555 1.948 0.85
O 0.607 4.204 1.213
O 1.879 3.798 -0.833
O -0.348 2.706 -0.466
P 0.956 3.153 0.27
