54
./arbalign_output/1ln1_DLP_conf23-aligned_to-1ln1_DLP.xyz-noHydrogens.xyz
C -3.511 -0.523 5.844
C 1.091 2.615 2.759
C -2.651 -1.013 3.51
C -6.823 2.548 -2.45
C -8.97 3.21 -1.698
C -8.722 2.458 -3.874
C -7.836 4.581 -3.192
C -5.706 2.75 -3.42
C -1.438 -0.097 3.573
C 2.552 -3.909 0.606
C 3.69 -2.876 0.572
C 0.98 2.242 -2.808
C 2.048 2.15 -3.846
C 2.183 0.71 -4.228
C 4.588 0.686 -4.35
C 6.927 0.577 -3.906
C 3.356 0.474 -5.156
C 5.916 0.446 -5.074
C 8.306 0.379 -4.373
C 9.259 0.347 -3.212
C 7.988 -1.518 -2.015
C 9.252 -0.928 -2.474
C 8.364 -2.811 -1.215
C 6.079 -2.683 -0.246
C 7.083 -3.524 -0.953
C 4.839 -3.568 -0.096
C -0.543 3.485 0.994
C -1.176 4.497 -1.062
C -1.399 4.076 -3.443
C -0.71 3.562 -2.098
C 0.709 3.645 1.778
C 1.352 1.247 2.159
C 1.342 -3.316 1.252
C 1.802 0.28 3.162
C 1.014 -0.12 4.322
C -0.28 -0.788 4.197
C -3.082 -1.532 4.874
C -4.563 -3.463 6.812
C -7.709 -6.277 6.024
C -5.816 -4.333 6.968
C -3.837 -1.038 7.192
C -6.98 -3.886 6.162
C -4.85 -2.1 7.273
C -8.111 -4.875 6.423
N -8.034 3.197 -2.836
O -3.376 3.305 -5.655
O 0.652 3.557 -2.4
O 1.617 1.639 -1.647
O -3.945 5.73 -5.207
O -0.663 4.557 0.152
O -1.663 3.624 1.93
O -2.735 4.028 -3.114
O -5.334 4.059 -3.616
P -3.829 4.26 -4.34
