54
./arbalign_output/1ln1_DLP_conf26-aligned_to-1ln1_DLP.xyz-noHydrogens.xyz
C -2.404 0.123 4.406
C 0.26 1.733 4.551
C -3.293 -1.07 4.529
C -6.356 4.339 1.134
C -7.728 3.19 -0.495
C -6.816 2.002 -0.742
C -7.825 5.523 -0.297
C -5.87 4.544 -1.159
C 1.318 -0.296 1.499
C 7.24 0.617 0.086
C 6.869 1.607 -0.971
C -0.054 -0.908 -2.087
C 0.53 1.866 -5.635
C 2.682 2.605 -4.514
C 1.756 2.755 -5.657
C 3.347 1.217 -4.492
C 4.129 0.99 -5.706
C 4.887 -0.248 -5.925
C 4.246 -1.561 -6.025
C 3.528 -2.163 -4.89
C 7.998 2.612 -1.154
C 4.486 -2.35 -3.668
C 3.685 -2.983 -2.597
C 5.928 -1.274 -0.929
C 4.382 -3.307 -1.352
C 4.901 -2.25 -0.505
C -2.64 1.266 -1.005
C -2.314 1.403 -3.445
C -0.405 2.232 -4.523
C -1.599 1.005 -2.133
C 0.868 -0.058 0.066
C 0.417 -1.309 -0.636
C 6.209 -0.426 0.355
C 1.884 0.984 2.075
C 2.34 0.902 3.473
C 1.288 0.643 4.526
C -2.566 -2.363 4.802
C -3.164 -4.8 5.147
C -2.447 -4.94 6.474
C -3.651 -3.427 4.867
C -0.737 1.565 5.619
C -1.579 0.343 5.633
C -3.333 -4.561 7.637
C -4.576 -5.429 7.692
N -6.947 4.375 -0.18
O -1.501 1.446 -4.493
O -1.088 -0.163 -2.096
O 0.11 -2.01 -2.87
O -1.053 3.503 -5.085
O -5.946 -0.772 -0.396
O -5.234 0.633 1.578
O -3.671 0.328 -1.151
O -6.039 1.735 0.394
P -4.919 0.535 -0.07
