54
./arbalign_output/1ln1_DLP_model_33_chainB_pH74-aligned_to-1ln1_DLP.xyz
C 2.712 -4.605 2.556
C 5.665 -1.64 1.943
C 2.924 -5.48 0.458
C 3.877 -0.613 0.552
C 3.421 2.405 -1.568
C 3.167 0.729 -3.986
C 3.23 2.729 -5.276
C 3.063 2.904 -2.92
C 9.654 -3.673 1.624
C 10.295 -2.702 0.772
C 10.753 -3.362 -0.439
C 6.087 -3.852 -2.297
C 5.346 -4.908 -3.059
C 11.46 -2.412 -1.329
C 11.721 -3.731 -3.349
C 11.411 -5.062 -3.009
C 6.398 -2.663 -3.134
C 10.703 -5.83 -3.893
C 9.426 -7.795 -4.187
C 12.406 -3.142 -2.194
C 7.654 -8.22 -2.624
C 9.902 -6.814 -3.237
C 8.438 -8.578 -3.833
C 7.333 -9.427 -1.85
C 6.663 -9.027 -0.583
C 6.643 -10.159 0.366
C 5.372 -0.868 0.69
C 6.565 -0.932 -1.356
C 5.104 2.142 -3.945
C 7.3 -1.761 -2.371
C 3.513 -5.932 -1.726
C 4.94 -6.02 -2.113
C 3.283 -6.541 -0.404
C 7.557 -2.928 2.555
C 9.03 -2.979 2.762
C 5.983 -9.798 1.644
C 3.348 -5.542 1.735
C 3.249 -4.668 3.915
C 2.697 -3.973 4.865
C 1.521 -3.09 4.627
C 0.88 -2.756 5.925
C -0.316 -1.912 5.695
C -1.133 -1.778 6.923
C -2.354 -0.921 6.689
N 3.636 2.144 -4.024
O 5.807 -1.592 -0.427
O 7.078 -1.792 2.031
O 6.856 -3.827 2.874
O 6.643 0.258 -1.344
O 3.675 0.722 0.862
O 1.196 0.523 0.774
O 2.367 1.688 -1.049
O 2.295 2.715 1.179
P 2.324 1.42 0.5
