54
./arbalign_output/1ln1_DLP_model_27_chainB_pH74-aligned_to-1ln1_DLP.xyz
C 3.382 -2.842 3.798
C 5.771 0.462 2.235
C 5.285 -1.518 3.287
C 4.686 -0.408 2.673
C 0.367 -2.909 -3.658
C 1.744 -0.343 -4.044
C 0.751 -0.222 -6.196
C 0.053 -1.933 -4.724
C 9.461 -0.837 3.431
C 5.782 -6.24 0.762
C 10.131 -0.419 1.131
C 11.235 0.07 0.309
C 6.574 -1.91 -1.906
C 11.54 -0.422 -0.85
C 5.675 -2.397 -2.966
C 10.82 -1.448 -1.564
C 2.245 -2.008 -5.71
C 10.424 -3.762 -3.455
C 10.302 -5.212 -3.524
C 8.993 -5.717 -3.14
C 11.708 -2.556 -1.744
C 11.561 -3.509 -2.605
C 8.609 -5.418 -1.74
C 8.981 -6.474 -0.81
C 8.18 -6.373 0.405
C 6.886 -7.077 0.246
C 1.983 -3.59 -0.524
C 5.873 0.626 0.787
C 5.879 -0.854 -1.155
C 4.766 -3.495 -2.493
C 6.581 -0.491 0.096
C 3.246 -4.33 -0.876
C 10.487 -0.257 2.548
C 3.718 -5.151 0.292
C 10.076 -1.417 4.641
C 9.065 -1.873 5.617
C 4.756 -2.598 3.641
C 3.268 -4.152 4.391
C 2.194 -4.753 4.698
C -0.094 -5.024 5.313
C 0.838 -4.298 4.414
C -1.499 -4.663 5.02
C -2.406 -5.133 6.076
C -3.836 -4.823 5.753
N 1.182 -1.13 -5.171
O 4.212 -3.384 -1.249
O 4.821 -5.944 -0.117
O 5.748 -5.875 1.886
O 4.525 -4.436 -3.172
O -1.38 -4.561 -1.813
O -0.828 -2.822 -0.14
O 0.945 -4.27 -1.109
O -0.211 -2.512 -2.491
P -0.428 -3.559 -1.339
