54
./arbalign_output/1ln1_DLP_conf39-aligned_to-1ln1_DLP.xyz
C 0.115 2.881 -2.72
C -0.604 2.56 -1.425
C -1.48 1.351 -1.705
C 1.919 1.258 -6.956
C 1.555 1.204 -8.43
C 3.356 0.226 -9.693
C 1.16 -0.246 -10.258
C 2.021 -1.171 -8.311
C -3.097 0.404 -2.989
C -4.547 0.691 -3.179
C -5.063 1.424 -1.925
C -6.515 1.726 -2.075
C -7.055 2.458 -0.876
C -6.333 3.75 -0.705
C -6.785 4.652 0.372
C -6.723 4.183 1.793
C -5.349 3.822 2.257
C -5.253 3.46 3.665
C -5.684 2.307 4.4
C -7.019 1.708 4.417
C -7.357 0.932 3.198
C -8.785 0.398 3.247
C -9.049 -0.376 1.996
C -10.451 -0.955 1.95
C -10.664 -1.884 3.13
C -9.685 -3.031 3.121
C 0.205 2.892 0.765
C 1.484 3.558 1.152
C 2.687 2.67 1.303
C 3.053 1.94 0.068
C 4.261 1.071 0.106
C 4.228 -0.049 1.122
C 5.505 -0.82 0.935
C 5.711 -1.98 1.875
C 4.618 -2.953 1.753
C 4.642 -4.214 2.508
C 4.689 -4.286 3.955
C 5.786 -3.737 4.755
C 7.162 -4.272 4.465
C 7.218 -5.756 4.684
C 8.588 -6.364 4.433
C 8.408 -7.857 4.71
C 9.652 -8.653 4.525
C 10.13 -8.516 3.102
N 2.026 0.025 -9.101
O 0.223 2.232 -0.41
O -2.315 1.543 -2.793
O -2.595 -0.303 -4.122
O -0.134 1.995 1.779
O 2.968 2.77 -5.19
O 0.938 0.567 -4.537
O 0.873 1.79 -3.157
O 1.45 2.412 -6.337
P 1.505 2.161 -4.665
