54
./arbalign_output/1ln1_DLP_model_1_chainB_pH74-aligned_to-1ln1_DLP.xyz
C 3.533 -0.423 -0.588
C 5.91 -1.011 -0.954
C 3.945 -5.172 0.579
C 1.055 1.515 -2.484
C -0.227 1.632 -3.229
C -0.379 -0.739 -3.66
C -1.747 0.793 -4.843
C 0.578 0.711 -5.312
C 3.928 -6.474 -2.597
C 7.188 -8.457 -1.765
C 9.354 -2.569 -3.71
C 8.984 -1.369 -2.943
C 8.29 -2.976 -4.634
C 8.533 -2.542 -6.01
C 7.389 -2.917 -6.866
C 7.862 -5.946 -7.864
C 7.805 -3.569 -8.115
C 7.05 -4.826 -8.308
C 7.493 -7.041 -7.232
C 6.163 -7.325 -6.795
C 6.047 -8.73 -6.435
C 6.062 -9.224 -5.215
C 6.381 -8.413 -4.045
C 6.672 -9.267 -2.88
C 7.605 -9.285 -0.631
C 8.323 -8.529 0.424
C 4.626 -0.603 -1.609
C 4.084 -1.201 -3.853
C 3.422 -2.168 -4.802
C 4.023 -3.518 -4.774
C 3.532 -4.236 -3.589
C 3.422 -5.711 -3.787
C 7.97 -1.66 -1.9
C 3.166 -6.256 -1.352
C 4.01 -6.368 -0.137
C 4.984 -4.756 1.326
C 4.849 -3.544 2.02
C 6.107 -3.152 2.635
C 6.225 -2.169 3.46
C 5.115 -1.29 3.89
C 5.465 -0.619 5.167
C 4.285 0.098 5.75
C 4.359 0.18 7.203
C 3.179 0.901 7.78
N -0.446 0.61 -4.259
O 4.201 -1.57 -2.535
O 6.957 -0.818 -1.874
O 8.07 -2.569 -1.146
O 4.482 -0.143 -4.213
O 1.876 2.868 0.082
O 1.413 0.674 1.141
O 3.231 0.925 -0.541
O 0.816 1.07 -1.216
P 1.824 1.413 -0.056
