54
./arbalign_output/1ln1_DLP_model_32_chainB_pH74-aligned_to-1ln1_DLP.xyz
C -0.876 -0.924 -2.205
C -0.465 -1.11 -3.641
C -0.091 -2.523 -3.92
C -2.703 2.16 -2.112
C -2.736 3.596 -1.779
C -0.339 3.808 -1.9
C -1.727 5.727 -1.83
C -1.688 4.385 -3.783
C 5.015 0.207 -2.22
C 0.924 -3.657 -5.736
C 2.58 -3.434 -7.439
C 1.168 -3.698 -7.191
C 2.679 -0.166 -8.855
C 6.884 1.106 -7.363
C 3.398 -0.033 -10.116
C 6.253 0.731 -8.41
C 4.467 0.97 -10.048
C 5.346 0.733 -9.152
C 8.192 0.629 -7.195
C 2.861 -2.577 -8.565
C 8.056 -0.629 -5.097
C 8.725 0.022 -6.193
C 8.614 -1.959 -4.884
C 7.808 -2.77 -3.971
C 8.073 -4.206 -4.118
C 7.341 -5.031 -3.133
C 0.378 0.744 -4.84
C 1.438 1.783 -5.035
C 2.793 1.227 -5.093
C 1.983 -1.441 -8.692
C 3.319 1.109 -3.73
C 4.672 0.528 -3.641
C 5.335 -1.187 -1.985
C 3.831 -2.481 -0.894
C 4.849 -1.74 -0.72
C 3.185 -3.449 -0.943
C 1.984 -3.898 -0.969
C 1.796 -5.291 -1.102
C 0.763 -5.933 -0.72
C -1.157 -6.492 0.621
C -0.401 -5.418 -0.024
C -2.156 -5.966 1.573
C -2.548 -6.954 2.577
C -3.43 -6.389 3.638
N -1.636 4.382 -2.317
O 0.594 -0.239 -3.914
O 0.169 -2.652 -5.3
O 1.376 -4.473 -5.009
O -0.63 0.765 -5.461
O -4.365 -0.192 -1.16
O -2.401 -0.676 0.272
O -2.229 -0.741 -2.197
O -2.535 1.431 -0.976
P -2.921 -0.091 -0.963
