54
./arbalign_output/1ln1_DLP_model_3_chainB_pH74-aligned_to-1ln1_DLP.xyz
C 2.929 -0.303 -0.851
C 4.337 -0.41 -1.393
C 5.192 -1.239 -0.483
C 1.476 2.728 -2.224
C 0.589 3.388 -3.211
C 0.27 1.412 -4.548
C -0.282 3.539 -5.398
C 1.983 2.955 -5.103
C 7.269 -2.3 -0.899
C 8.894 -2.876 -2.59
C 9.299 -1.943 -3.626
C 4.041 -3.035 -4.996
C 8.673 -2.292 -4.88
C 8.841 -1.238 -5.901
C 9.295 -1.799 -7.169
C 6.41 -5.061 -8.043
C 8.254 -2.537 -7.88
C 8.542 -3.92 -7.727
C 7.779 -4.95 -7.717
C 6.116 -6.436 -8.348
C 5.075 -7.148 -6.248
C 5.483 -7.304 -7.638
C 5.431 -8.365 -5.499
C 5.156 -8.241 -4.056
C 6.019 -9.151 -3.282
C 5.653 -9.211 -1.854
C 4.669 -0.146 -3.725
C 4.828 -0.761 -5.074
C 3.732 -1.666 -5.467
C 2.848 -3.927 -5.039
C 1.815 -5.508 -3.418
C 3.038 -5.072 -4.096
C 8.669 -2.163 -1.325
C 1.752 -5.147 -2.016
C 2.877 -5.596 -1.32
C 3.336 -5.315 -0.19
C 2.968 -4.371 0.753
C 3.581 -4.742 1.989
C 3.474 -4.215 3.131
C 2.499 -3.076 4.984
C 2.812 -2.997 3.541
C 1.659 -1.948 5.431
C 0.905 -2.268 6.652
C -0.012 -1.162 7.067
N 0.637 2.84 -4.553
O 4.875 1.007 -3.547
O 6.531 -1.193 -0.942
O 6.843 -3.331 -0.51
O 4.291 -0.948 -2.681
O 0.53 0.513 0.563
O 1.649 2.686 0.923
O 2.786 0.969 -0.359
O 0.74 2.101 -1.282
P 1.4 1.555 0.037
