54
./arbalign_output/1ln1_DLP_model_11_chainB_pH74-aligned_to-1ln1_DLP.xyz
C 3.318 -3.358 -2.06
C 7.395 -0.619 -0.339
C 7.79 -1.178 0.909
C 0.656 -2.245 -4.252
C 0.085 -1.104 -4.988
C 2.093 0.229 -4.85
C 0.381 0.769 -6.396
C 1.71 -1.17 -6.757
C 7.02 -6.352 -2.404
C 7.787 -7.284 -3.25
C 12.35 -0.771 -1.688
C 12.642 0.145 -3.919
C 7.162 -1.776 -5.091
C 12.416 -0.196 -5.151
C 11.631 -1.736 -6.736
C 9.001 -4.924 -7.227
C 10.517 -3.293 -8.175
C 10.122 -4.707 -8.149
C 11.383 -3.029 -7.099
C 12.427 -1.567 -5.573
C 8.35 -6.113 -5.24
C 9.462 -5.629 -6.037
C 13.098 -0.856 -2.937
C 8.847 -6.545 -3.957
C 12.731 -1.858 -0.782
C 12.309 -3.05 1.304
C 7.119 -0.966 -3.861
C 5.108 -3.123 -4.889
C 5.783 -1.955 -5.555
C 8.456 -0.473 -3.464
C 8.313 0.489 -2.333
C 4.291 -4.131 -2.911
C 8.585 -0.135 -1.026
C 5.041 -5.118 -2.075
C 11.835 -1.994 0.355
C 7.408 -2.296 1.41
C 6.12 -2.879 1.302
C 6.244 -4.292 1.655
C 5.341 -5.007 2.254
C 3.478 -5.392 3.763
C 4.006 -4.533 2.67
C 2.07 -5.035 4.081
C 1.625 -5.592 5.369
C 0.212 -5.187 5.682
N 1.051 -0.319 -5.75
O 5.158 -3.213 -3.524
O 5.876 -5.899 -2.912
O 7.398 -6.047 -1.322
O 4.538 -3.954 -5.518
O -0.352 -3.985 -2.068
O 0.948 -2.512 -0.548
O 2.087 -3.937 -2.221
O 0.709 -1.941 -2.921
P 0.807 -3.115 -1.872
