54
./arbalign_output/1ln1_DLP_conf8-aligned_to-1ln1_DLP.xyz
C -4.003 6.566 3.976
C -7.625 3.555 0.799
C -3.929 5.818 2.669
C -7.755 3.939 2.258
C -4.182 6.829 1.578
C -7.656 4.745 -0.107
C -6.567 5.733 0.128
C -4.159 6.264 0.206
C 1.846 4.068 1.914
C 4.26 0.64 0.339
C 6.401 0.029 -1.595
C 5.782 -1.038 -2.391
C 5.678 1.349 -1.564
C 5.603 -0.828 -3.853
C 4.912 -2.105 -4.356
C 4.723 -4.651 -5.815
C 4.66 -2.125 -5.821
C 3.932 -3.433 -6.196
C 3.979 -5.941 -6.181
C 2.651 -6.011 -5.492
C 1.875 -7.285 -5.775
C 2.667 -8.505 -5.317
C 2.963 -8.401 -3.824
C 3.741 -9.611 -3.331
C 4.058 -9.503 -1.862
C 2.805 -9.394 -1.039
C -5.188 5.19 -0.055
C 1.339 6.013 0.71
C 1.033 3.936 -0.303
C 0.294 2.635 -0.319
C -0.413 4.582 1.47
C 4.266 1.216 -1.039
C 1.673 -1.227 0.001
C 2.707 -0.862 1.102
C 2.103 -1.2 2.391
C 0.513 -1.177 3.914
C -1.297 0.476 4.504
C 0.014 -0.187 4.881
C -1.614 1.432 5.63
C -2.942 2.143 5.461
C -3.765 5.691 5.189
C -4.771 4.566 5.265
C -3.212 3.081 6.608
C -4.551 3.741 6.491
N 0.932 4.645 0.962
O 0.548 -0.422 0.163
O 2.958 0.491 0.848
O 4.966 1.449 1.195
O 0.913 0.076 -2.681
O 0.804 -0.691 2.623
O -0.408 -2.244 3.739
O -1.058 -0.953 -1.337
O 0.416 1.956 -1.559
P 0.038 0.321 -1.259
