54
./arbalign_output/1ln1_DLP_model_37_chainB_pH74-aligned_to-1ln1_DLP.xyz
C 1.588 5.126 1.192
C 5.509 4.857 -0.813
C 5.121 2.932 0.524
C 0.621 6.104 0.656
C 2.233 7.445 -0.52
C 1.139 5.65 -1.663
C -0.068 7.587 -1.047
C 5.498 5.52 -2.164
C 10.575 4.359 -0.512
C 5.572 -1.185 -3.44
C 10.081 5.086 -1.658
C 11.282 7.151 -2.204
C 10.96 7.556 -3.577
C 11.04 6.455 -4.392
C 10.575 6.223 -5.6
C 10.255 4.87 -5.863
C 10.105 4.574 -7.249
C 9.735 3.376 -7.637
C 9.325 1.029 -7.12
C 9.217 2.409 -6.673
C 5.598 0.523 -4.939
C 9.629 0.176 -5.958
C 9.245 -1.204 -6.133
C 10.034 -2.121 -5.263
C 5.85 -1.623 -2.335
C 5.907 -2.296 -0.196
C 6.3 4.798 -3.164
C 5.481 3.701 -3.703
C 6.143 2.922 -4.752
C 5.214 1.884 -5.271
C 10.141 6.545 -1.496
C 4.897 -0.029 -3.816
C 10.253 2.956 -0.659
C 5.247 -1.411 -1.114
C 9.806 2.403 0.628
C 8.492 1.744 0.471
C 6.149 1.878 0.782
C 5.528 -2.672 0.942
C 4.379 -2.233 1.686
C 4.163 -3.13 2.832
C 3.734 2.347 0.568
C 2.724 -3.446 2.996
C 2.52 -4.676 3.752
C 1.074 -5.044 3.802
N 0.974 6.701 -0.627
O 5.301 3.508 -0.743
O 7.428 2.486 0.782
O 8.405 0.623 0.116
O 5.684 5.48 0.179
O 1.07 1.443 1.453
O 1.36 2.984 3.356
O 3.188 2.689 1.771
O 1.067 3.868 1.091
P 1.637 2.69 1.96
