54
./arbalign_output/1ln1_DLP_conf49-aligned_to-1ln1_DLP.xyz-noHydrogens.xyz
C -0.06 2.878 1.56
C 1.312 3.124 0.888
C -3.068 -2.753 -1.429
C -4.6 2.633 0.118
C -8.094 2.423 -0.525
C -6.353 0.847 -0.57
C -6.794 2.196 -2.458
C -5.824 3.201 -0.547
C 2.495 1.245 0.321
C 2.813 -4.523 0.117
C 1.919 -0.531 -1.341
C 0.919 0.154 -2.153
C 4.628 3.874 -2.953
C 7.248 2.189 -1.905
C 7.087 3.561 -2.36
C 6.316 0.787 -3.722
C 6.061 4.027 -3.285
C 6.601 -0.354 -4.687
C 7.007 -1.625 -4.039
C 7.488 1.072 -2.836
C 6.031 -2.216 -3.056
C 6.581 -3.504 -2.481
C 4.306 -4.477 -1.986
C 5.643 -4.135 -1.446
C 3.337 -5.149 -1.095
C 4.532 -5.283 1.781
C 1.225 4.492 0.323
C 2.706 4.429 -1.499
C 4.189 4.553 -1.682
C -0.516 0.079 -1.784
C -2.481 -1.413 -1.492
C -1.009 -1.354 -1.751
C 2.119 -0.172 0.078
C -2.716 -3.72 -0.394
C 3.709 -4.128 1.229
C -3.065 -3.522 1.01
C -2.646 -2.376 1.816
C -3.255 -2.589 3.24
C -2.885 -1.41 4.096
C -3.494 -1.611 5.475
C -5.676 -0.552 4.763
C -7.979 0.237 4.148
C -4.996 -1.736 5.365
C -7.175 -0.883 4.741
N -6.731 2.175 -1.01
O 2.278 5.034 -0.346
O 1.549 2.184 -0.078
O 3.641 1.532 -0.446
O 2.148 5.296 -2.55
O -2.969 1.461 1.767
O -2.472 3.262 3.185
O -1.054 2.98 0.621
O -3.75 3.624 0.554
P -2.505 3.062 1.5
