54
./arbalign_output/1ln1_DLP_conf12-aligned_to-1ln1_DLP.xyz-noHydrogens.xyz
C -3.047 -0.392 1.536
C -3.606 -1.512 0.784
C -4.44 -2.43 1.736
C -3.829 4.187 0.406
C -5.196 4.813 0.249
C -4.303 6.763 -0.858
C -6.635 6.253 -1.006
C -5.038 4.923 -2.081
C 1.893 -0.204 2.846
C 4.571 1.472 2.814
C 1.798 -2.818 -2.016
C 1.324 -2.078 -3.23
C -0.664 -0.3 -4.937
C 0.473 0.092 -4.115
C 4.532 2.64 -4.382
C 4.677 0.172 -4.8
C 5.413 1.513 -4.868
C 5.636 -0.864 -5.297
C 5.055 -2.234 -5.301
C 4.651 -2.636 -3.905
C 2.261 -4.191 -2.202
C 4.074 -4.046 -3.999
C 6.159 -0.47 -0.733
C 3.54 -4.603 -2.757
C 6.563 -0.964 0.64
C 6.326 0.071 1.709
C -2.324 -1.334 -2.217
C -2.725 -1.286 -3.628
C -2.046 -0.385 -4.558
C 0.944 -0.625 -2.933
C -3.293 -2.215 -1.389
C 3.188 1.928 3.019
C 4.834 0.439 1.772
C 2.138 1.062 3.571
C 0.524 -2.23 2.709
C -0.567 -3.174 3.031
C 0.667 -0.964 3.481
C -0.71 -3.753 4.364
C -1.064 -3.008 5.556
C -2.441 -2.346 5.607
C -5.961 -1.964 3.535
C -5.723 -2.045 4.994
C -3.504 -3.38 5.419
C -4.908 -3.054 5.627
N -5.301 5.706 -0.861
O -2.537 0.641 0.746
O -2.83 -2.186 -0.078
O -3.321 -3.484 -1.896
O -1.394 1.719 0.576
O -5.028 -1.693 2.663
O -7.181 -1.253 3.292
O -2.055 3.1 2.727
O -3.903 3.352 1.524
P -2.715 2.141 1.51
