54
aligned by ArbAlign
C       51.397411    50.901648    19.725936
C       52.564484    51.016348    18.716349
C       47.159354    45.645727    17.699976
C       46.637898    51.137838    19.520423
C       43.094432    51.291948    19.813140
C       44.594402    49.548290    19.337086
C       43.815770    50.960528    17.611357
C       45.347031    51.835987    19.189854
C       53.361947    49.034939    17.885874
C       53.029107    43.267722    17.683408
C       52.195664    47.349197    16.455401
C       51.093416    48.143012    15.922977
C       54.823216    51.478250    14.134164
C       57.440914    49.522215    14.485608
C       57.306905    50.909511    14.069938
C       55.930371    48.246710    12.993273
C       56.128033    51.489643    13.438143
C       55.836786    47.095882    12.002734
C       56.266562    45.781596    12.539509
C       57.315419    48.399362    13.539298
C       55.525750    45.279335    13.750739
C       56.073032    43.934527    14.179741
C       53.919127    43.190604    15.263554
C       55.378199    43.387917    15.431802
C       53.152844    42.608306    16.385234
C       55.036106    42.314842    18.851924
C       52.472449    52.393653    18.175258
C       53.413126    52.205514    16.031256
C       54.801839    52.180969    15.466430
C       49.804232    48.208910    16.654191
C       47.842416    46.920029    17.468205
C       49.194169    46.832971    16.833750
C       52.793908    47.666794    17.768290
C       47.668975    44.634075    18.620337
C       54.219223    43.554719    18.518059
C       47.719886    44.847389    20.063988
C       48.448451    45.933962    20.717489
C       48.213265    45.764525    22.253720
C       48.911163    46.888215    22.967817
C       48.665466    46.731325    24.460446
C       46.492371    48.015676    24.327600
C       44.201000    49.042398    24.323549
C       47.182049    46.760774    24.747391
C       45.013876    47.838709    24.701476
N       44.251498    50.913617    18.993042
O       53.364052    52.835106    17.247736
O       52.444939    50.070346    17.734660
O       54.291437    49.214628    16.842929
O       52.691413    53.138796    15.150479
O       48.514715    49.784247    20.702919
O       49.544095    51.506177    21.918101
O       50.208697    51.116635    19.077168
O       47.668119    52.031538    19.706496
P       49.052989    51.333418    20.302774
