54
./arbalign_output/1ln1_DLP_model_10_chainB_pH74-aligned_to-1ln1_DLP.xyz
C 1.157 -1.748 6.457
C 4.92 0.601 3.584
C 7.072 0.352 4.533
C 2.986 0.709 2.039
C 1.896 2.896 -0.72
C 3.845 2.92 -2.877
C 1.55 3.02 -2.158
C 2.075 2.596 -4.424
C 4.493 -5.185 2.221
C 8.622 -6.631 2.747
C 6.299 -4.28 0.834
C 10.28 1.108 2.428
C 6.389 0.163 -0.902
C 10.375 1.037 0.956
C 6.646 -3.533 -0.426
C 11.793 0.946 0.526
C 7.075 -1.09 -0.515
C 11.911 -0.01 -0.596
C 11.478 -2.374 -0.724
C 12.095 -1.329 -0.074
C 11.54 -3.62 -0.017
C 11.154 -4.729 -0.869
C 10.551 -5.789 -0.328
C 9.649 -5.576 0.822
C 9.754 -6.676 1.79
C 9.094 -6.496 4.141
C 4.457 0.973 2.207
C 5.841 0.923 0.278
C 2.537 0.907 -2.812
C 6.062 -2.163 -0.415
C 3.794 -4.076 2.761
C 4.923 -4.822 0.832
C 9.734 -0.149 2.95
C 8.417 0.949 4.675
C 9.476 -0.044 4.389
C 8.029 -6.884 5.11
C 3.013 -2.999 4.649
C 4.047 -3.747 4.051
C 3.469 -2.395 5.905
C 2.622 -1.789 6.699
C 0.52 -0.816 7.448
C -0.852 -0.442 7.025
C -1.884 -1.07 7.868
C -3.238 -0.44 7.648
N 2.491 2.376 -3.069
O 5.143 0.23 1.23
O 6.248 1.041 3.743
O 6.747 -0.637 5.101
O 5.983 2.097 0.384
O 2.363 1.937 1.995
O 0.12 0.881 1.834
O 0.98 2.111 -0.103
O 0.372 3.348 1.929
P 0.897 2.066 1.468
