54
./arbalign_output/1ln1_DLP_model_42_chainB_pH74-aligned_to-1ln1_DLP.xyz
C 3.971 -0.307 -1.402
C 0.885 -5.105 -2.277
C 1.664 -4.657 -1.125
C 2.767 2.81 -2.661
C 1.657 3.543 -3.311
C 0.558 1.56 -4.129
C -0.014 3.686 -4.975
C 2.073 2.733 -5.524
C 1.715 -5.454 -3.456
C 7.436 -3.346 -2.763
C 2.742 -8.453 -4.918
C 1.946 -8.016 -7.185
C 2.623 -7.647 -8.291
C 3.342 -6.416 -8.453
C 6.817 -3.04 -7.666
C 4.717 -6.689 -8.738
C 5.484 -4.382 -9.207
C 6.806 -3.819 -8.902
C 5.595 -5.826 -9.183
C 6.725 -3.869 -6.451
C 2.505 -8.978 -6.261
C 8.002 -4.436 -6.045
C 7.947 -4.795 -4.63
C 8.434 -3.666 -3.799
C 3.236 -9.47 -3.998
C 4.404 -9.972 -1.906
C 2.175 -3.286 -4.51
C 4.134 -0.953 -4.695
C 3.051 -1.383 -5.649
C 2.88 -2.834 -5.715
C 1.494 -4.597 -4.655
C 4.906 -0.827 -2.459
C 5.929 -1.741 -1.864
C 2.731 -5.532 -0.825
C 3.729 -8.933 -2.744
C 3.754 -5.261 -0.11
C 3.895 -4.172 0.773
C 5.224 -4.229 1.329
C 5.671 -3.57 2.331
C 5.72 -2.31 4.371
C 4.981 -2.549 3.114
C 5.276 -1.066 5.038
C 4.791 -1.313 6.403
C 4.545 -0.038 7.154
N 1.072 2.898 -4.472
O 4.143 -1.479 -3.435
O 6.832 -2.159 -2.871
O 7.21 -4.094 -1.872
O 4.962 -0.167 -5.015
O 4.232 3.133 -0.023
O 2.741 1.308 0.743
O 4.42 0.929 -1.034
O 2.378 2.367 -1.434
P 3.452 1.948 -0.363
