54
./arbalign_output/1ln1_DLP_conf25-aligned_to-1ln1_DLP.xyz-noHydrogens.xyz
C 1.066 6.863 3.46
C 1.759 4.894 2.273
C 0.99 3.968 3.145
C -0.024 6.282 1.467
C -5.075 1.357 -1.8
C -5.57 2.254 -2.926
C -5.378 3.708 -2.626
C -3.929 4.093 -2.421
C -2.347 -4.184 0.875
C -2.993 -3.292 -0.188
C 2.027 -1.966 -2.371
C 4.01 0.281 -2.181
C 4.022 2.244 -3.824
C 4.073 1.62 -5.171
C 1.69 -0.997 -8.135
C 3.946 -0.987 -7.312
C 3.033 -0.245 -8.251
C 1.877 -2.435 -8.577
C 5.803 0.75 -6.846
C 5.476 1.335 -5.527
C 4.192 -0.922 -3.037
C 5.335 -0.575 -7.21
C 3.488 -2.176 -2.452
C 1.272 -3.109 -1.821
C 1.595 -3.552 -0.425
C 1.64 -2.886 1.981
C 2.174 7.025 1.396
C -4.844 -1.064 -1.096
C -5.313 -0.084 -2.185
C 4.554 1.578 -2.638
C -3.399 -0.919 -0.798
C -2.844 -1.842 0.232
C 1.531 -2.402 0.522
C -2.969 -4.073 2.216
C 0.598 -1.285 3.395
C -2.129 -4.908 3.229
C 0.563 0.189 3.458
C 0.303 -5.012 5.668
C 1.328 -4.328 6.606
C 1.09 -2.807 6.708
C 0.196 -1.94 4.739
C -2.831 -4.819 4.516
C -1.019 -4.936 6.294
C -2.255 -5.439 5.698
N 1.242 6.225 2.185
O 1.674 -1.855 2.831
O 1.292 -2.268 5.463
O 2.504 -3.897 2.182
O -0.346 3.776 2.761
O -0.98 3.082 4.926
O 1.969 -2.304 7.634
O -0.584 0.738 4.035
O -2.395 2.831 3.136
P -0.831 2.311 3.454
