54
./arbalign_output/1ln1_DLP_model_44_chainB_pH74-aligned_to-1ln1_DLP.xyz
C 3.285 0.218 -1.751
C 4.213 1.296 -4.821
C 4.481 0.331 -2.672
C 1.524 3.412 -2.137
C 0.397 4.215 -2.67
C -0.092 2.74 -4.511
C -0.843 4.989 -4.521
C 1.467 4.535 -4.801
C 2.135 -5.017 -4.938
C 8.806 -1.141 -3.921
C 8.534 -0.054 -5.997
C 8.284 -0.267 -7.41
C 7.906 0.994 -8.068
C 8.506 1.048 -9.415
C 6.223 -1.255 -10.971
C 5.109 -3.319 -11.344
C 7.485 0.739 -10.438
C 7.418 -0.676 -10.597
C 6.046 -2.61 -10.493
C 4.485 -4.403 -10.937
C 4.37 -4.725 -9.496
C 4.911 -6.069 -9.233
C 8.784 -1.331 -5.376
C 4.716 -6.424 -7.808
C 5.793 -7.331 -7.343
C 5.57 -7.766 -5.936
C 3.534 1.304 -6.164
C 2.675 -0.895 -6.424
C 3.709 0.038 -6.896
C 2.518 -2.082 -7.307
C 1.69 -3.982 -5.918
C 2.867 -3.339 -6.559
C 7.485 -1.485 -3.352
C 5.487 -0.73 -2.361
C 2.273 -4.417 -3.659
C 3.422 -4.654 -2.97
C 3.378 -4.284 -1.601
C 4.719 -4.354 -1.001
C 4.904 -4.218 0.287
C 4.333 -3.888 2.637
C 3.788 -3.992 1.255
C 3.336 -3.247 3.545
C 3.175 -3.993 4.806
C 2.139 -3.353 5.701
N 0.231 4.126 -4.116
O 4.02 0.216 -3.993
O 6.66 -0.47 -3.112
O 7.2 -2.609 -3.106
O 4.892 2.2 -4.468
O 2.343 2.836 0.728
O 1.289 0.635 0.32
O 3.275 1.365 -0.988
O 1.032 2.449 -1.311
P 1.976 1.799 -0.238
