63
./arbalign_output/21-TIP5P-aligned_to-21-TIP4P.xyz
O 3.226297583 1.00322291 -1.758877078
H 3.30248165633 0.461071130831 -0.973702399782
H 2.35909239639 2.38822742036 -1.29401784044
O 0.1118124207 0.0842196541 0.1233434666
H -0.0324642408323 0.299363876352 -0.79813851834
H 1.74046070395 -0.285687672841 0.347800332527
O -0.2694364292 0.5441475115 -2.452803215
H -1.05574746904 0.0799548494035 -2.73998253369
H 0.441738296199 0.143766494111 -2.9529605811
O -3.462742889 -0.67942247 1.497180013
H -3.85276497825 0.159960096881 0.00465129875049
H -3.03333590671 -0.227853143284 2.22376560791
O -0.5779359009 3.180982453 -2.046631415
H -0.482483634932 2.29725278002 -2.40179696796
H 0.255804368763 3.35549068319 -1.60998982246
O -2.673238815 2.993779903 -0.4423057276
H -1.96690384579 3.11378589749 -1.07706655859
H -3.20337985954 3.78692974853 -0.520380278
O -3.857908655 0.5741239559 -0.8582934738
H -3.20218933317 -0.866377863047 -3.41473302437
H -3.49412721259 1.44663666869 -0.707905747651
O -2.57304335 -0.8161101296 -2.695093999
H -1.81755217253 -2.33367613729 -2.18081763271
H -3.04584245875 -0.367833908244 -1.9938513362
O 2.679332575 -0.4509452361 0.4340638099
H 2.90657087418 -0.100429396174 1.29530317346
H 2.81743773703 -2.22107010388 0.30252649936
O 2.477764288 -3.115960095 0.29745779
H 2.08958239948 -3.22039470367 -0.571242430982
H 1.40552977605 -3.12438199817 1.6108290648
O 0.7157833685 -3.058334362 2.271222465
H -0.751940621779 -1.30229299277 0.549992226535
H -0.748069818909 -2.56491320751 1.38525889173
O 1.535766456 3.036062782 1.699832961
H 3.19396510784 1.11021399782 3.4198920596
H 2.17041845136 1.66863672846 2.45427749484
O 1.261646017 -3.190988499 -2.14209579
H 1.79251890603 -1.67873039976 -2.8549725829
H 1.35918928817 -4.02112120157 -2.60856856132
O -1.275974092 -2.077124262 0.7531110743
H 0.760284656412 -3.88690982691 2.74841652858
H -2.85324814132 -1.37624018485 1.25388376393
O 1.938092722 3.189904516 -0.9836874544
H 2.5179204708 3.89365134441 -1.27484380968
H 1.75108219856 3.14813549938 0.773922232568
O 0.496507801 -0.7389884699 3.716814302
H -1.03956729615 -0.037936985016 3.49319844638
H -0.219079657222 0.844301318387 0.601901860511
O 1.899536636 -0.8359101126 -3.295918168
H 2.81401886078 0.431325961007 -2.40632744284
H 2.22029914323 -1.06098459252 -4.16923639891
O 2.517568772 0.8449509897 2.796710406
H 1.22082095788 -0.185005391741 3.4257729993
H 0.623296243615 -1.56481217764 3.24972572951
O -1.853207372 0.4552852405 3.388539461
H -1.68677911487 2.52176441967 0.961544189737
H -2.15645527209 0.610590282867 4.28305211877
O -0.9782384157 2.097337538 1.445345533
H -1.40433856577 1.72455849594 2.2171656467
H 0.585922642515 2.91833232178 1.71279863567
O -1.33838274 -3.040233818 -1.747914943
H 0.319445149659 -3.10736664706 -1.99547808486
H -1.47218860673 -2.88339222439 -0.813180464903
