120
./arbalign_output/215d_DNA_conf10-aligned_to-215d_DNA.xyz-noHydrogens.xyz
O -5.532 3.28 3.339
C -7.691 0.748 2.32
C -5.92 1.961 3.585
O -7.151 -3.909 3.507
C -4.54 3.569 4.273
O -4.137 5.719 3.28
C -4.649 1.213 3.856
C -6.021 -3.664 2.696
N -6.528 1.424 2.403
C -0.388 -4.754 6.716
O -4.339 -4.018 6.621
N -2.387 -3.984 7.787
C -1.053 -4.235 7.812
N -0.38 -3.935 9.028
C -3.109 -4.233 6.688
C -4.888 -4.577 3.073
P -2.988 6.722 2.591
O -3.169 6.872 1.086
O -3.244 8.281 3.248
O -7.351 0.264 -1.884
C -6.015 1.517 1.164
C -6.858 0.896 0.294
O -2.548 2.237 4.017
C -0.838 5.425 2.018
O -1.409 6.293 2.918
C -4.625 2.012 -0.674
C -6.605 0.822 -1.061
N -4.887 2.076 0.648
C -3.534 4.525 3.665
N -7.894 0.422 1.011
C -3.82 2.28 4.553
C -3.222 -5.013 4.424
O -4.49 -4.413 4.394
N 4.035 4.079 7.472
C -1.151 -5.003 5.595
N -2.48 -4.737 5.614
N -5.478 1.391 -1.518
C -3.664 -4.17 2.296
P -3.436 -3.953 -0.181
O 1.471 5.746 2.094
O 1.633 5.965 -0.695
O 3.302 6.129 3.33
C 2.99 5.219 4.152
C 3.348 4.184 6.223
O -3.059 -2.367 0.241
C -1.349 -0.68 0.235
O 1.452 0.948 2.092
C -1.682 -2.168 0.322
C -2.488 -4.35 3.248
N 2.004 4.359 3.828
C 2.335 3.29 5.905
O -3.464 -4.953 1.172
N 3.665 5.156 5.318
C 1.658 3.376 4.703
O -4.99 -3.887 -0.899
C -0.198 4.286 2.771
C 0.375 6.072 1.341
C 1.293 4.452 2.561
P 1.745 5.354 -2.267
O 0.722 -1.502 1.035
O 0.195 5.499 -2.972
O -1.814 -0.262 -0.987
C 4.682 -2.919 0.925
C 2.595 -8.477 -1.279
O 1.32 -1.202 3.55
C 5.337 -2.045 -0.111
O 3.367 -1.096 1.846
C -0.725 -1.946 -3.989
C 3.34 -2.366 1.277
N 4.796 -6.46 -3.541
C -0.835 -0.476 -1.931
N 0.578 -2.231 -4.16
C -2.665 -1.255 -3.362
C 0.506 5.482 -0.058
N -3.419 2.618 -1.177
N -1.331 -1.212 -3.064
C 0.156 -0.587 0.157
N 4.228 -5.141 -1.744
C 0.359 -0.958 -1.285
P 1.729 -0.717 2.169
O 4.489 -4.179 0.38
O 4.997 1.353 0.907
O 4.595 -0.911 -0.39
C 3.405 -7.373 -1.874
C 3.499 -6.163 -1.229
O -2.456 -4.476 -1.233
C 4.241 -3.916 -0.96
O 7.078 0.07 0.125
C 0.939 -3.005 -5.182
C -1.277 -3.269 -5.947
N 2.315 -3.357 -5.431
C -1.634 -2.466 -4.882
O 2.124 3.7 -2.288
N 0.054 -3.527 -6.072
C 2.89 3.481 -3.405
N -2.836 -2.014 -4.46
C 4.256 2.877 -3.107
C 4.204 1.978 -1.897
P 5.475 0.503 -0.245
O 4.01 -8.609 -3.676
O 4.591 2.19 -4.262
O -2.122 -3.743 -6.763
C 4.084 -7.503 -3.067
C 5.332 -2.969 -1.327
O 5.423 1.382 -1.689
C 4.884 -5.279 -2.907
O 5.55 -4.328 -3.369
C 3.894 -0.175 -6.396
C 3.454 1.538 -4.632
N 3.814 -0.272 -7.732
C 3.373 0.881 -8.245
N 3.305 0.493 -10.641
C 3.108 1.342 -9.517
C 2.47 3.412 -8.622
O 2.734 6.164 -3.052
N 2.658 2.607 -9.682
C 2.317 2.436 -4.335
N 2.734 2.946 -7.391
N 3.496 1.073 -6.012
C 3.178 1.717 -7.143
