120
./arbalign_output/215d_DNA_conf24-aligned_to-215d_DNA.xyz-noHydrogens.xyz
O -5.687 5.025 3.052
C -8.286 -0.876 2.216
C -6.03 1.262 3.664
O -4.862 -0.575 3.095
C -4.575 1.712 3.454
O -3.745 4.219 4.537
C -6.068 0.042 2.796
C -7.461 -1.616 4.096
N -10.51 -3.676 4.522
C 1.683 -1.432 9.119
O 3.741 0.391 8.639
N -6.781 -1.933 5.19
C -7.299 -2.808 6.07
N -8.511 -3.393 5.885
C -9.239 -3.102 4.785
C -8.702 -2.207 3.893
P -4.375 4.238 2.976
O -4.678 2.685 2.435
O -1.849 7.48 1.154
O -3.362 5.065 1.902
C -0.913 10.845 1.439
C -0.243 8.218 2.514
O -2.155 -1.115 3.043
C -2.133 12.236 -0.093
O 0.888 4.465 3.998
C -1.341 12.097 1.056
C -1.299 6.337 1.673
N -7.219 -0.792 3.044
C -2.221 5.529 2.53
N -9.19 -1.748 2.748
C -3.949 0.467 2.948
C 2.569 -1.46 7.926
O -1.35 -2.584 5.165
N 4.323 -0.6 6.668
C 2.403 -2.442 6.95
N 3.175 -2.51 5.852
N -6.705 -1.243 -0.703
C -2.685 0.058 3.644
P 1.608 4.759 2.498
O 1.075 6.239 1.957
O -2.327 8.9 -1.054
O 1.223 3.51 1.476
C 0.415 2.517 1.94
C -4.108 -3.747 -0.27
O -0.075 -0.449 4.477
C -3.098 -1.538 -0.294
O 3.108 4.716 2.734
C -2.976 -2.932 -0.197
C 1.522 -3.599 4.513
N -4.323 -1.0 -0.457
C 3.57 -0.516 7.761
O 0.271 -2.563 2.883
N -5.297 -3.159 -0.434
C -5.4 -1.807 -0.525
O -1.215 0.978 0.981
C -0.808 8.396 1.109
C -1.979 9.883 -0.339
C -0.073 6.744 2.49
P -0.791 -1.631 3.851
O 2.734 -1.692 0.549
O 1.399 2.302 -0.905
O -3.947 -4.999 -0.18
C 4.133 -1.57 5.738
C 2.99 -3.539 4.832
O 4.906 -1.551 4.745
C 3.38 -2.093 1.688
O 3.652 -3.241 3.667
C -1.475 -5.122 -6.224
C 2.69 -2.968 2.656
N 3.94 -6.415 -6.385
C 0.671 1.367 -0.195
N -2.407 11.086 -0.733
C -1.483 0.407 -0.248
C -0.344 1.998 0.728
N -1.204 9.712 0.778
N -1.884 -0.984 -0.197
C 1.53 -2.457 3.407
N -1.662 -3.186 -0.039
C -1.021 -2.004 -0.042
P 3.869 -1.011 -0.546
O 5.425 -1.579 -0.158
O 0.784 -0.681 -5.596
O 3.454 -1.425 -2.122
C 0.511 -5.679 -5.374
C -0.113 -4.767 -4.376
O 3.868 0.477 -0.318
C 2.607 -4.387 -5.325
O -0.338 -3.105 -6.008
C 4.7 0.076 -3.516
C 3.297 -0.298 -2.896
N 6.026 -5.151 -6.36
C -1.091 -3.98 -5.272
O -1.561 -1.185 -4.631
N 1.914 -5.495 -5.596
C -0.292 0.622 -1.141
N -2.596 13.504 -0.536
C 1.171 -0.758 -4.23
C 2.608 -0.429 -4.194
P -0.698 -1.486 -5.809
O 2.006 -7.589 -6.411
O 7.325 -0.816 -9.294
O -2.374 -5.6 -8.343
C 2.617 -6.525 -6.14
C 3.963 -4.244 -5.565
O 2.814 0.88 -4.686
C 4.636 -5.313 -6.118
O -0.212 -5.602 -6.565
C 7.242 -0.445 -8.08
C 8.259 0.038 -6.006
N 9.421 0.13 -5.192
C 6.0 -0.128 -7.546
N 8.353 -0.355 -7.294
C 3.95 0.281 -7.059
C 4.202 0.967 -4.642
O -1.373 -0.904 -7.262
N 4.742 -0.116 -8.059
C -2.21 -4.574 -7.415
N 4.674 0.516 -5.952
N 7.061 0.352 -5.465
C 5.952 0.274 -6.207
