120
./arbalign_output/215d_DNA_conf39-aligned_to-215d_DNA.xyz-noHydrogens.xyz
O -8.051 3.463 2.178
C -7.846 -0.549 1.252
C -6.63 0.325 1.479
O -7.701 -1.523 2.237
C -4.243 3.41 2.549
O -6.81 1.225 2.533
C -7.681 -1.179 -0.116
C -6.362 -1.908 2.191
N -6.037 -2.508 3.467
C -4.807 -2.436 4.007
O -8.193 -3.246 3.633
N -6.798 -3.757 5.325
C -4.516 -3.021 5.232
N -5.321 -4.31 7.141
C -5.549 -3.68 5.867
C -7.036 -3.168 4.123
P -6.68 2.803 1.996
O -5.567 3.738 2.81
O -6.401 2.817 0.318
O -3.54 5.699 2.451
C -2.382 6.365 2.181
C -3.177 6.383 -0.145
O 1.559 3.605 5.163
C -1.932 7.935 -1.072
O -7.826 -0.2 -1.093
C -1.572 7.823 0.275
C -1.24 5.426 2.363
N -2.916 7.046 -1.31
C -3.296 4.491 3.047
N -2.354 6.866 0.805
C -5.576 -0.681 1.863
C -0.794 -3.099 3.774
O -0.646 0.072 6.017
N -3.687 -5.285 -1.519
C 0.461 -2.712 4.522
N -1.065 -4.033 1.492
N -2.366 -3.646 -0.452
C -1.919 4.104 2.596
P -1.391 1.868 1.491
O -2.02 3.412 1.386
O -1.596 8.977 -3.119
O -0.725 1.645 2.836
C 3.601 2.403 4.764
C -0.181 -3.472 2.444
O 1.595 1.078 4.817
C 3.606 3.692 2.939
O 0.772 -1.413 4.14
C -1.528 -3.223 0.499
C -1.481 -5.302 1.495
N -0.609 8.586 0.814
C 2.881 1.178 5.288
O 1.706 -0.912 6.563
N 4.764 4.102 2.163
C 2.953 3.686 5.193
O -2.716 0.787 1.419
C 0.009 9.481 -0.01
C -1.291 8.852 -1.893
C 3.374 4.625 4.082
P 0.907 -0.344 5.439
O -1.164 -2.005 0.449
O -0.295 1.481 0.295
O 3.695 2.408 3.387
C 1.47 -3.628 3.912
C 2.696 -2.893 3.413
O 0.866 -4.305 2.848
C 3.575 -4.653 -1.027
O 3.541 -3.872 2.893
C 6.028 4.95 0.54
C 6.048 3.937 2.494
N 3.765 -6.089 -3.032
C 4.741 4.72 0.971
N 3.719 5.112 0.202
C 0.085 0.772 -1.967
C -0.807 1.5 -0.98
N 1.04 10.33 0.481
N 6.827 4.456 1.501
C -2.358 -5.759 0.505
N 3.006 -7.999 -3.817
C -2.801 -4.905 -0.481
P 4.781 -3.092 2.057
O 6.233 -3.913 2.138
O 7.45 5.791 -1.069
O 4.964 -1.729 2.683
C 3.72 -7.443 -2.851
C 4.682 -3.783 -0.41
O 3.829 0.839 -0.824
C 5.342 -3.28 -1.649
O 3.786 -1.48 -2.027
C 5.129 -1.792 -1.852
C 1.409 1.457 -2.188
N 2.759 -4.708 -4.79
C 1.037 2.585 -3.118
O -0.513 0.849 -3.215
N 2.867 6.158 -1.823
C 3.946 5.727 -0.983
N -0.328 9.6 -1.31
C -0.157 2.024 -3.823
C 6.272 5.57 -0.656
P 3.67 0.219 -2.189
O 4.251 -2.858 0.479
O 1.286 1.005 -9.016
O 4.989 0.677 -3.167
C 4.453 -5.204 -2.163
C 3.055 -5.843 -4.138
O 2.211 0.576 -2.914
C 2.588 -7.027 -4.62
O 4.898 -4.022 -2.723
C 1.812 -7.077 -5.771
C 2.001 -4.752 -5.914
N 1.34 -8.34 -6.241
C 0.651 -1.157 -7.456
N 1.529 -5.916 -6.407
C 0.959 1.255 -7.832
C 0.56 2.762 -6.054
O 0.542 3.956 -5.661
N 0.918 2.518 -7.344
C 0.263 0.515 -5.667
N 5.213 5.948 -1.395
N 0.234 1.776 -5.219
C 0.619 0.251 -6.953
