120
./arbalign_output/215d_DNA_conf29-aligned_to-215d_DNA.xyz
O -6.115 -0.214 6.628
C -4.185 5.764 3.561
C -7.242 -2.94 4.399
O -5.17 -2.157 5.173
C -3.811 1.578 5.448
O -4.165 0.354 4.898
C -6.09 -1.961 4.163
C -7.116 -3.954 3.314
N -6.54 -5.208 3.694
C -5.484 -7.737 4.197
O -3.71 -1.092 7.209
N -6.07 -7.417 3.027
C -5.429 -6.744 5.152
N -4.943 -9.036 4.45
C -5.968 -5.502 4.853
C -6.584 -6.207 2.764
P -4.844 -0.71 6.021
O -2.896 3.705 4.815
O -4.819 8.019 0.058
O -6.416 -3.326 2.282
C -3.278 2.432 4.352
C -2.846 5.74 1.881
O -1.496 -1.202 4.826
C -3.898 7.245 0.354
O -5.083 -1.675 0.67
C -3.885 6.606 1.562
C -1.655 3.205 2.909
N -3.036 5.224 3.113
C -2.171 4.285 3.798
N -4.697 6.594 2.631
C -5.539 -1.202 1.879
C -5.564 -2.401 2.83
O -7.109 -6.004 1.645
N 0.35 -5.042 4.795
C 1.247 -4.952 5.792
N 1.848 -4.25 3.174
N -1.893 5.584 0.951
C -1.959 1.968 3.776
P -0.886 -0.263 3.55
O -2.306 1.033 -0.089
O -2.158 1.558 -2.592
O 1.447 4.378 0.178
C 1.043 -1.092 2.068
C 3.523 -4.379 6.544
O 0.263 0.55 4.109
C -2.025 -5.354 -1.549
O -0.33 -1.255 2.302
C 2.774 -4.147 4.145
C 2.516 -4.485 5.459
N -0.409 -8.56 -2.6
C 0.634 -4.703 3.522
O 0.976 -5.268 6.971
N -2.132 -4.799 -2.771
C -2.388 -2.555 -1.823
O -2.053 0.833 2.993
C -1.847 -1.309 -2.52
C -1.897 6.208 -0.24
C -2.715 -3.462 -2.965
P -1.308 0.951 -1.467
O -0.035 1.977 -1.219
O 0.594 2.521 -4.47
O -0.9 -0.631 -1.8
C 2.207 -3.877 1.833
C 3.347 -2.918 1.765
O -0.261 -4.814 2.638
C -1.711 -5.413 -3.892
O 1.135 -3.326 1.182
C 5.968 2.206 1.626
C 2.881 -2.011 0.601
N 8.655 0.26 -1.346
C 1.22 1.442 -1.199
N 5.512 2.266 0.371
C 3.431 3.33 0.897
C 2.052 3.135 0.355
N -2.91 7.044 -0.537
N -1.146 -6.651 -3.834
C -1.447 -6.618 -1.491
N 7.152 1.558 1.684
C 1.407 -1.988 0.906
P 4.204 -2.03 -1.619
O 5.28 -1.387 -0.733
O -0.014 -0.095 -4.162
O 3.064 -2.669 -0.602
C -1.005 -7.271 -2.639
C 7.478 1.185 0.438
O -2.241 -2.897 -4.147
C 3.91 -1.199 -4.017
O 3.698 -0.855 -2.679
C 3.216 1.069 -4.94
C 6.447 1.63 -0.387
N 7.827 0.381 -3.549
C 4.328 2.843 -0.185
O 3.577 1.989 -0.987
N 6.582 1.355 -1.695
C 2.292 2.528 -0.998
N -0.859 6.012 -1.203
C -1.014 -0.888 -4.776
C -1.277 -1.974 -3.762
P 0.646 1.009 -5.22
O 9.489 0.114 0.722
O 4.507 -0.263 -6.166
O -1.819 -4.88 -5.037
C 8.565 0.509 -0.044
C 7.657 0.687 -2.162
O 2.184 0.597 -5.739
C 4.257 -0.01 -4.803
O 5.044 -3.268 -2.459
C 2.824 0.101 -8.376
C 4.59 0.968 -6.799
N 3.634 1.057 -7.908
C 3.461 2.187 -8.615
N 3.991 3.428 -8.589
C 2.082 2.877 -10.467
C 3.591 4.387 -9.472
O -0.249 1.096 -6.441
N 2.648 4.095 -10.391
C 2.484 1.902 -9.575
N 1.086 2.562 -11.432
N 2.115 0.621 -9.403
C 4.105 2.024 -5.792
