120
./arbalign_output/215d_DNA_conf3-aligned_to-215d_DNA.xyz
O -8.924 2.706 5.684
C -7.787 2.413 6.424
C -7.781 0.973 6.91
O -6.533 1.244 4.974
C -6.532 2.482 5.618
O -5.353 3.472 3.877
C -6.752 0.331 6.005
C -8.385 -1.103 4.852
N -8.509 -2.387 4.486
C -4.998 -3.826 5.89
O -7.743 -5.161 4.209
N -5.401 -2.533 5.996
C -6.967 -4.346 4.788
N -5.781 -4.751 5.281
C -7.416 -3.043 4.873
C -6.584 -2.134 5.503
P -5.103 4.672 2.74
O -5.73 4.209 1.421
O -5.887 6.072 3.224
O -0.055 7.325 5.293
C -6.511 3.623 4.623
C -0.644 4.843 4.578
O -4.169 0.152 2.483
C 0.906 6.648 4.795
O -0.776 3.554 4.143
C -1.705 5.673 3.894
C -1.725 3.463 3.158
N 2.132 7.193 4.657
C -2.698 4.598 3.515
N -7.206 -0.94 5.477
C -2.504 2.205 3.332
C -1.063 -1.919 2.853
O -3.402 0.043 4.927
N -3.739 -4.227 6.418
C -0.289 -2.841 3.786
N 3.889 -3.172 4.063
N 0.689 5.362 4.401
C -1.044 -2.736 1.585
P -2.876 -0.2 3.534
O -4.505 0.247 -0.588
O -3.464 4.915 2.415
O -0.351 1.968 0.173
C 0.211 2.851 -0.553
C -1.434 -1.999 0.35
O -2.763 -1.657 0.414
C -2.086 -0.575 -3.17
O -4.051 -2.062 -1.795
C 2.815 -4.678 2.884
C 2.589 -2.781 3.919
N 4.427 7.096 4.006
C 0.532 -3.651 2.828
O -2.35 -1.727 3.254
N 1.93 -3.701 3.198
C 1.692 4.641 3.877
O -1.724 1.028 3.258
C 3.153 6.484 4.133
C 0.159 4.938 -1.553
C 2.951 5.18 3.728
P -3.382 -0.967 -0.994
O 3.748 -0.03 2.634
O -2.142 -0.228 -1.825
O 2.932 1.372 0.315
C 4.042 -4.333 3.434
C 5.158 -5.13 3.29
O 0.32 -3.114 1.56
C 3.57 -0.397 -1.06
O 2.393 -4.022 -1.263
C 2.869 0.701 -1.844
C 3.731 0.268 0.276
N 5.016 -6.285 2.581
C 1.392 4.711 -2.082
N 1.451 2.573 -1.061
C -0.685 -1.009 -3.494
C -2.225 0.697 -3.971
N -0.414 4.013 -0.801
N 2.747 -5.82 2.205
C 3.497 -0.685 1.425
N 6.39 -4.74 3.862
C 2.033 1.302 -0.735
P 3.353 -2.896 -1.601
O 4.896 -3.194 -0.992
O 0.699 -2.528 -4.573
O -0.024 -4.962 -4.919
C 3.824 -6.623 2.046
C 4.45 -3.685 -3.736
O 2.702 -1.47 -0.975
C 4.657 -3.602 -5.231
O 3.468 -2.833 -3.288
C 3.457 -3.943 -6.037
C -0.654 -2.258 -4.387
N 7.718 -2.546 -6.199
C 2.018 3.503 -1.813
O -0.034 -0.014 -4.17
N -0.506 2.112 -5.048
C -1.624 5.582 -5.933
N -0.538 6.176 -1.8
C -1.133 3.285 -5.023
C -0.783 1.151 -4.028
P 0.952 -3.913 -5.466
O 2.486 -4.566 -5.286
O 7.589 0.722 -8.425
O 0.533 -3.655 -7.075
C 4.022 -4.892 -7.104
C 5.499 -4.588 -7.02
O 0.999 0.739 -6.085
C 8.612 -1.55 -5.981
O 5.674 -4.482 -5.621
C 6.772 -2.474 -7.155
C 6.763 -1.308 -7.914
N 9.557 -1.757 -4.938
C 7.676 -0.285 -7.694
N 8.594 -0.426 -6.722
C 0.385 1.845 -6.032
C 0.007 3.966 -6.975
O 0.252 4.815 -7.871
N 5.762 -1.451 -8.782
C -0.911 4.257 -5.972
N 0.623 2.772 -6.972
N 5.781 -3.292 -7.581
C 5.17 -2.643 -8.584
