120
./arbalign_output/215d_DNA_conf15-aligned_to-215d_DNA.xyz
O -8.427 -1.526 0.227
C -8.431 6.887 5.037
C -7.876 6.847 3.772
O -7.293 -4.808 4.397
C -6.866 5.938 3.472
O -1.848 1.216 3.239
C -7.133 -0.623 1.88
C -6.988 5.143 5.673
N -7.964 6.024 5.956
C -5.416 -4.997 3.084
O 0.948 0.025 6.423
N -5.338 -5.537 5.345
C -4.022 -5.847 5.198
N -3.361 -6.292 6.385
C -6.078 -5.102 4.294
C -8.297 -0.199 2.706
P -0.913 2.6 3.489
O -4.525 4.852 2.315
O -2.512 6.484 -0.042
O -2.013 3.911 3.385
C -7.287 7.115 1.692
C -7.279 -1.272 0.667
O -0.283 2.514 5.056
C -3.305 5.315 1.893
O 0.174 2.718 2.476
C -4.874 6.087 0.352
C -4.922 -1.323 0.5
N -8.107 7.546 2.667
C -5.509 5.365 1.514
N -9.476 7.81 5.381
C -5.867 -0.349 2.354
C -4.816 -4.682 1.027
O -2.773 -1.389 2.826
N -5.861 -4.607 1.889
C -4.078 -5.315 2.944
N -3.387 -5.742 4.016
N -6.452 5.104 4.454
C -3.475 -0.392 2.197
P -1.544 5.914 -1.3
O -2.057 4.38 -1.723
O -1.643 6.781 -2.539
O 0.094 5.915 -0.83
C -1.416 -1.077 2.779
C -2.552 -5.91 -0.338
O 0.639 -0.882 3.841
C 3.855 1.023 3.178
O -1.752 -4.085 0.861
C 3.342 -0.364 3.433
C -2.419 -5.31 1.036
N -6.145 -1.602 0.016
C -0.69 -1.229 4.066
O 1.687 -2.354 5.805
N -4.742 -0.69 1.681
C -1.353 0.367 2.276
O -3.937 -1.681 -0.2
C -2.198 4.295 2.079
C -3.44 5.552 0.388
C -2.475 0.192 1.225
P 1.587 -0.992 5.212
O 5.125 0.993 3.698
O -2.263 2.385 -3.554
O 0.512 -0.316 -0.596
C 4.59 -1.192 3.102
C 5.663 -0.262 3.561
O 3.15 -0.474 4.809
C 7.563 -1.347 2.368
O 4.598 0.538 0.92
C -0.135 -3.224 -0.623
C -1.432 -5.237 -1.107
N 8.156 -4.95 2.076
C -0.512 1.206 -2.799
N 6.87 -0.29 2.786
C -1.588 2.172 -2.353
C -1.021 3.486 -1.898
N -6.524 6.126 2.186
N -3.716 -5.114 1.658
C -0.752 -4.438 -0.013
N 7.405 -2.677 2.501
C 3.886 1.388 1.728
P -0.121 -1.132 -1.935
O -0.595 -6.224 -1.62
O 3.636 2.605 -0.712
O 1.0 -1.744 -2.77
C 8.303 -3.536 1.947
C 8.671 -0.905 1.646
O -1.034 -2.439 -1.343
C 4.804 0.106 -2.89
O 3.994 0.059 -1.784
C 3.99 0.475 -4.139
C 7.507 0.813 2.351
N 9.371 -3.097 1.251
C -0.13 1.694 -4.183
O -1.02 -0.087 -2.885
N 8.617 0.447 1.648
C -3.127 2.043 -6.028
N -1.827 2.322 -5.833
C -3.531 1.768 -7.316
C -1.286 2.63 -4.506
P 4.551 1.179 -0.651
O 10.577 -1.324 0.434
O 3.645 2.041 -6.449
O 5.766 -0.969 -4.63
C 9.582 -1.763 1.083
C 5.37 -1.214 -3.326
O 5.967 1.556 -1.009
C 6.557 -1.661 -2.501
O 7.558 -0.684 -2.479
C 6.957 1.105 -5.652
C 4.892 -0.089 -5.216
N 5.607 1.076 -5.762
C 7.665 2.183 -6.151
N 7.66 4.339 -7.279
C 6.941 3.206 -6.753
C -2.612 1.781 -8.365
O 0.299 2.603 -6.641
N -3.019 1.498 -9.697
C -0.921 2.339 -6.841
N -1.324 2.067 -8.106
N 5.595 3.124 -6.835
C 4.91 2.068 -6.345
