120
./arbalign_output/215d_DNA_conf33-aligned_to-215d_DNA.xyz-noHydrogens.xyz
O -4.773 0.745 4.246
C -4.079 7.092 5.39
C -5.052 5.436 3.83
O -10.733 -6.833 3.747
C -3.949 5.949 4.467
O -4.365 -1.746 3.441
C -6.177 -2.176 2.057
C -7.797 -4.778 1.487
N -7.589 -4.762 4.974
C -7.822 -4.871 3.64
O -3.198 -0.706 5.658
N -9.442 -6.025 5.461
C -8.385 -5.33 5.892
N -8.053 -5.155 7.265
C -9.722 -6.167 4.141
C -8.9 -5.581 3.2
P -3.746 -0.347 4.079
O -3.659 2.893 1.986
O -6.205 5.913 4.006
O -2.487 0.29 3.173
C -3.73 3.864 2.778
C -0.633 3.606 4.487
O 2.331 1.127 7.191
C -2.949 2.669 -1.554
O -1.3 2.551 2.517
C -1.297 3.757 3.153
C 0.277 2.396 4.221
N -2.612 4.314 3.365
C -2.737 5.361 4.21
N -4.95 4.393 2.983
C -4.702 -1.722 2.113
C -5.941 -3.57 2.645
O -4.886 -4.031 1.921
N -8.878 -5.518 1.854
C -4.09 -2.978 1.493
N 1.38 -7.086 -2.633
N -7.128 -4.366 2.578
C -1.611 0.889 4.104
P 2.116 1.569 5.756
O -1.951 2.909 -0.593
O -5.393 0.034 -5.891
O -4.713 -1.811 -2.841
C 2.318 4.95 0.968
C -0.521 0.678 -1.631
O 2.725 3.167 5.685
C 4.448 4.053 1.106
O -3.225 -1.878 -0.458
C 4.969 0.533 3.331
C 3.987 1.28 4.168
N 2.795 6.196 0.712
C -4.007 -2.908 0.005
O 2.996 0.531 4.753
N 3.123 3.894 1.163
C -0.568 1.634 3.259
O 0.494 1.669 5.364
C -2.447 1.649 -2.582
C -4.314 0.689 -6.073
C -2.018 0.406 -1.836
P -3.165 -1.883 -2.15
O 5.874 1.457 2.826
O -1.336 2.198 -3.159
O -2.559 -3.198 -2.652
C 2.117 -4.392 -0.577
C 3.377 -4.167 0.196
O 4.606 -3.102 2.754
C 1.023 -5.937 -1.795
O 3.593 -2.798 0.366
C 6.584 3.928 1.091
C 5.483 1.784 1.537
N 5.455 3.186 1.259
C 4.944 5.314 0.846
N 4.708 7.669 0.383
C -0.225 1.442 -2.899
C 4.131 6.395 0.647
N -4.274 2.018 -5.912
N 0.946 2.294 -2.789
C 4.357 -0.153 2.13
N 0.703 -8.818 -4.099
C 4.215 1.066 1.206
P 4.929 -2.55 1.384
O 6.222 -3.386 0.698
O 2.159 -2.594 -2.208
O 1.889 -5.778 -0.744
C 2.66 -7.509 -2.747
C 2.244 -3.96 -2.006
O 5.331 -0.946 1.536
C 1.049 -4.684 -2.627
O 4.097 -0.713 -2.73
C -1.641 -1.439 -7.003
C 3.167 2.726 -2.083
N 6.269 5.203 0.843
C 2.077 1.892 -2.168
O -2.192 -0.657 -2.716
N 1.999 4.369 -3.24
C -3.099 2.636 -6.121
N -3.052 4.068 -5.95
C 0.928 3.529 -3.315
C 3.13 3.991 -2.63
P 3.468 -2.182 -3.211
O -0.79 -7.36 -3.215
O 3.289 1.464 -6.139
O 2.931 -2.172 -4.835
C 2.997 -8.605 -3.545
C 0.413 -7.751 -3.316
O 1.085 -1.076 -6.741
C 1.978 -9.267 -4.235
O 4.578 -3.221 -3.141
C 2.403 -0.72 -6.679
C 2.993 -0.878 -5.291
N 2.25 -10.383 -5.06
C 2.497 0.742 -7.044
N -1.038 -0.215 -6.994
C 1.04 1.168 -6.928
C -1.997 0.657 -6.647
O -0.111 3.948 -3.906
N -1.975 1.988 -6.481
C -3.184 -0.01 -6.441
N 4.251 4.861 -2.548
N -2.908 -1.305 -6.675
C 0.345 -0.043 -7.311
