120
./arbalign_output/215d_DNA_conf32-aligned_to-215d_DNA.xyz-noHydrogens.xyz
O -6.89 -3.126 3.351
C -8.803 1.34 4.275
C -8.81 0.136 4.976
O -3.008 -0.419 6.77
C -5.543 5.572 4.701
O -4.597 -1.612 5.094
C -7.44 0.356 2.66
C -6.673 -1.925 2.733
N -9.5 2.488 4.738
C -4.727 -2.473 4.023
O -2.816 -2.996 6.7
N 2.71 -2.639 7.971
C -5.397 -4.865 3.717
N -7.425 -0.823 3.31
C -5.842 -3.461 4.16
C -8.102 -0.962 4.472
P -3.081 -1.582 5.792
O -6.816 0.537 1.563
O -6.288 6.137 5.565
O -4.261 2.421 4.165
C -4.5 3.665 3.978
C -3.156 3.532 2.013
O -1.813 -1.444 4.715
C -4.199 5.623 2.678
O -2.599 1.139 0.225
C -5.355 7.697 3.483
C -3.968 3.021 0.828
N -5.285 4.277 4.881
C -5.02 6.26 3.62
N -8.115 1.432 3.123
C -5.167 -1.681 2.787
C 2.178 -1.739 7.125
O -5.009 -4.814 2.382
N 0.364 -6.743 4.434
C 3.423 -3.49 7.249
N 4.807 -5.3 6.665
N 2.545 -2.006 5.854
C -1.018 -0.307 4.961
P -3.122 0.135 -1.022
O -2.167 4.219 1.363
O -3.833 1.036 -2.273
O 0.333 3.453 1.603
C 1.104 0.744 4.097
C 4.17 -4.6 7.629
O -4.061 -0.945 -0.534
C 2.157 -1.247 4.681
O 2.814 3.765 2.647
C 0.542 -5.499 2.344
C 3.329 -3.109 5.933
N 3.98 -3.832 5.004
C 2.305 0.232 4.868
O 4.252 -4.95 8.856
N 0.593 -7.864 2.366
C 0.174 -0.405 4.006
O 0.721 3.563 4.124
C -1.67 3.291 0.434
C -2.821 2.47 -0.031
C -0.6 2.522 1.201
P 1.334 2.976 2.86
O 1.467 1.332 2.899
O 0.492 5.562 -2.91
O -1.783 -0.629 -1.693
C 0.504 -6.699 3.018
C 4.715 -4.922 5.366
O 0.909 -1.54 4.214
C 0.813 -3.939 -0.895
O -0.435 -3.941 -1.447
C 6.126 1.925 -1.793
C 0.676 -5.543 0.958
N 0.762 -6.721 0.335
C 0.559 -2.09 -2.24
N 0.689 -4.257 0.511
C -0.755 -2.693 -1.924
C -1.606 -1.857 -1.005
N -3.971 4.32 2.905
N 0.477 -4.227 2.703
C 0.566 -3.461 1.581
N 5.415 -5.703 4.381
C 1.422 -2.572 -1.134
P 1.016 -0.833 -4.451
O 7.069 -0.278 -2.017
O 2.148 -1.01 -5.694
O 0.997 -2.182 -3.511
C 0.723 -7.882 1.014
C 7.207 1.054 -2.403
O 1.435 0.351 -3.614
C 2.839 -2.222 -5.62
O 2.597 -2.641 -7.958
C 6.978 1.239 -3.893
C 5.668 2.759 -2.946
N 4.322 3.228 -2.808
C 3.311 2.591 -2.221
O -0.444 -0.448 -5.184
N 2.206 3.334 -2.284
C 1.714 5.562 -3.243
N 2.295 6.58 -3.899
C 2.499 4.474 -2.923
C 3.843 4.397 -3.251
P 7.084 -1.423 -6.759
O 7.67 -2.417 -5.774
O 8.276 -1.087 -7.943
O 6.653 -0.037 -5.932
C 3.53 -2.542 -6.929
C 6.96 -0.092 -4.585
O 5.728 1.847 -4.003
C 4.575 -1.573 -7.339
O 5.815 -2.174 -7.568
C 4.025 -0.994 -8.647
C 2.596 -1.404 -8.593
N 1.934 -1.522 -9.859
C 2.293 -0.894 -10.988
N 1.602 -1.062 -12.152
C 0.125 -2.533 -11.067
C 0.521 -1.868 -12.226
O 3.312 -0.127 -10.941
N 4.149 7.625 -4.91
C 3.615 6.511 -4.224
N 4.378 5.452 -3.913
N -0.223 -2.064 -13.423
C 0.846 -2.342 -9.907
