120
./arbalign_output/215d_DNA_conf2-aligned_to-215d_DNA.xyz-noHydrogens.xyz
O -11.459 0.792 0.87
C -11.684 4.18 1.658
C -10.577 4.649 1.008
O -7.921 1.818 4.644
C -10.275 6.092 1.077
O -5.324 1.54 5.143
C -7.447 1.445 2.05
C -11.128 2.014 0.879
N -10.029 2.47 0.231
C 1.66 -4.746 5.919
O -2.684 -3.618 6.593
N -1.605 2.862 3.223
C -0.327 -3.915 4.641
N -11.927 2.846 1.568
C -3.465 -0.623 5.211
C -4.189 1.655 4.391
P -6.566 2.281 4.217
O -6.406 3.939 4.397
O -12.426 4.955 2.298
O -8.677 0.521 0.31
C -9.77 3.781 0.306
C -7.398 0.909 0.664
O -6.261 1.889 2.576
C -6.901 1.844 -0.387
O -5.871 1.19 -1.085
C -8.111 2.035 -1.274
C -0.64 6.203 4.255
N -0.531 6.738 3.023
C -9.241 1.507 -0.479
N -0.364 7.06 5.359
C -3.029 2.345 5.068
C -3.522 0.346 4.032
O -1.754 -1.313 7.27
N 1.213 -3.545 1.374
C 0.861 -4.776 4.622
N 6.288 1.618 7.287
N -0.995 4.906 4.448
C -1.855 1.859 4.269
P -4.465 2.091 -1.145
O -4.288 2.994 0.028
O -0.675 6.494 0.747
O -4.586 3.078 -2.54
C 0.679 -2.514 0.654
C 6.04 1.089 5.981
O -2.77 -1.725 4.777
C 5.399 1.428 3.754
O -3.071 1.173 -1.351
C 6.201 -0.246 5.675
C 1.057 -3.444 2.81
N 0.726 -2.477 -0.667
C -0.403 -3.431 3.2
O -0.351 -2.862 5.532
N 5.636 1.907 4.991
C -1.243 4.146 3.369
O -2.217 0.661 3.736
C -1.132 4.693 2.108
C -0.77 6.014 1.915
C -1.719 2.604 1.911
P -1.908 -2.458 6.035
O 0.107 -1.537 1.239
O 0.472 1.047 -0.45
O 5.021 2.29 2.898
C 5.953 -0.731 4.384
C 1.855 -4.515 -0.645
O 2.719 -5.651 5.863
C 6.515 -0.392 1.208
O 1.662 -4.441 3.533
C 4.779 0.606 0.139
C 5.29 -0.356 2.089
N 5.413 -1.408 -5.623
C -0.635 0.858 -3.014
N -1.067 -0.083 -6.339
C -1.814 -0.082 -2.922
C -3.105 0.629 -2.63
N -1.427 3.733 1.213
N 1.316 -3.368 -2.763
C 1.814 -4.572 0.753
N 5.547 0.131 3.423
C 1.312 -3.471 -1.344
P 1.418 0.928 -1.653
O 7.236 -3.588 -0.5
O 0.588 0.189 -2.891
O 5.372 -1.721 -0.307
C 6.528 -4.498 -2.854
C 4.582 -5.6 -3.841
O 4.317 0.333 1.425
C 3.811 -4.713 -4.821
O 2.737 0.021 -1.067
C 5.544 -0.077 -5.682
C 5.799 -0.411 -0.179
N 6.219 0.62 -4.645
C 3.723 0.931 -0.822
O 1.866 2.496 -2.044
N -0.267 -1.272 -7.995
C -0.815 1.405 -4.418
N -0.305 2.116 -7.193
C -1.707 0.398 -5.114
C -0.95 -1.32 -6.814
P 6.431 -2.572 -1.317
O 4.359 -6.911 -4.298
O 7.504 -1.505 -2.118
O 5.652 -3.447 -2.526
C 5.991 -5.164 -4.1
C 4.791 -2.106 -6.573
O -1.834 -0.639 -4.22
C 4.894 -4.496 -5.871
O 5.972 -4.186 -5.083
C 3.861 -3.524 -7.913
C 4.268 -1.43 -7.644
N 4.53 -3.405 -6.754
C 4.408 -0.074 -7.691
N 3.69 -2.318 -8.475
C 0.69 0.713 -9.234
C 0.338 2.777 -8.171
O 3.941 0.581 -8.658
N 1.217 -0.049 -10.314
C -0.47 0.786 -7.193
N 0.839 2.058 -9.202
N 5.035 0.591 -6.725
C 0.035 0.012 -8.244
