120
./arbalign_output/215d_DNA_conf9-aligned_to-215d_DNA.xyz
O -2.715 3.641 4.244
C -5.657 -2.727 8.214
C -2.443 2.311 4.232
O -3.342 -3.383 4.899
C -1.524 4.343 4.128
O -3.58 2.025 2.135
C -2.559 -3.073 3.821
C -2.813 -4.568 5.39
N -6.389 -3.609 8.911
C -3.962 -6.537 6.482
O 0.053 0.175 6.724
N -4.93 -6.662 7.426
C -5.312 -5.453 7.823
N -7.026 -5.846 9.486
C -6.23 -4.936 8.73
C -4.571 -4.537 7.117
P -0.258 -0.306 5.149
O -5.121 1.459 0.172
O -3.746 5.048 2.877
O -3.687 -0.508 1.187
C 1.01 7.314 5.488
C -2.399 1.825 2.792
O -0.401 1.052 4.146
C -1.688 5.85 0.202
O -2.545 1.434 -0.423
C 1.252 7.699 4.192
C -0.398 5.015 2.041
N -2.763 5.671 0.967
C -2.673 5.187 2.216
N -0.024 7.901 6.281
C -1.038 2.118 4.772
C -1.269 -2.442 4.299
O -1.621 -1.298 5.007
N -4.765 -3.207 7.333
C -2.652 -5.399 4.135
N -3.751 -5.22 6.302
N 1.8 6.343 5.996
C -0.416 3.449 4.54
P -3.723 1.136 0.712
O -1.852 6.304 -0.949
O -5.694 3.218 -6.17
O 3.991 5.933 1.91
C -3.999 2.421 -4.872
C 4.053 5.541 3.264
O 0.937 -1.084 4.657
C -2.249 -0.21 -2.145
O 2.844 3.42 1.285
C 3.833 4.061 3.286
C -1.815 0.285 -0.733
N 2.994 6.181 3.984
C -2.381 -4.362 3.094
O -1.135 -4.517 2.489
N -1.476 4.847 2.781
C 2.784 5.776 5.263
O 3.495 4.87 5.79
C 2.25 7.138 3.414
C -0.458 5.517 0.737
C 0.737 5.707 -0.094
P 2.791 1.784 0.869
O -1.6 -3.252 0.032
O 5.353 6.256 -0.527
O 2.374 0.882 2.263
C 0.837 -4.598 -0.507
C 1.964 -5.412 -1.092
O -2.633 -5.543 0.611
C 2.996 -4.545 -1.787
O -0.029 -5.471 0.143
C -1.439 0.758 -2.982
C 4.094 3.677 1.823
N 0.612 -8.445 -5.548
C 4.747 4.911 1.311
N -2.35 1.723 -3.599
C -3.31 1.294 -4.468
C -2.414 3.048 -3.448
N -3.439 3.452 -4.244
N -3.658 0.079 -4.947
C 0.434 1.158 0.036
N 1.911 -6.949 -4.247
C -0.37 0.543 -1.049
P -1.365 -4.736 0.821
O 1.529 -6.359 -1.999
O 4.223 1.36 0.557
O 2.773 -1.728 -0.15
C 3.334 -5.452 -2.958
C 1.914 -5.924 -3.263
O 1.754 1.435 -0.391
C 3.396 0.174 -3.088
O 2.435 -0.732 -2.729
C 3.988 2.258 -4.334
C 2.86 1.378 -3.814
N -0.833 -1.594 -7.942
C 4.786 5.041 -0.184
O -0.488 1.344 -2.189
N -4.961 -1.4 -6.266
C -5.031 2.23 -5.765
N -5.36 1.001 -6.231
C -4.672 -0.077 -5.82
C 1.884 2.388 -5.429
P 3.094 -1.989 -1.807
O 2.372 -3.427 -2.301
O 2.201 1.076 -5.003
O 4.59 -1.967 -2.065
C 0.718 -7.473 -4.621
C 2.999 -7.454 -4.856
O 4.483 2.981 -3.256
C 2.918 -8.458 -5.817
O -0.372 -7.071 -4.111
C 1.676 -8.976 -6.179
C -0.313 -0.312 -8.284
N 1.548 -10.005 -7.159
C 0.041 1.392 -9.827
N -0.458 0.181 -9.533
C 0.691 2.115 -8.863
C 1.758 3.52 -7.62
O -0.07 1.9 -10.986
N 1.276 3.302 -8.838
C 3.212 3.138 -5.299
N 1.495 2.459 -6.801
N 0.323 0.376 -7.311
C 0.834 1.596 -7.583
