120
./arbalign_output/215d_DNA_conf36-aligned_to-215d_DNA.xyz-noHydrogens.xyz
O -5.367 0.377 2.178
C -8.924 -5.15 2.383
C -6.867 -5.486 3.512
O -9.428 -7.496 4.966
C -4.64 -4.521 3.173
O -0.784 3.027 5.689
C -0.917 -0.376 6.103
C 0.383 0.529 8.02
N -9.559 -6.037 3.201
C -3.207 -4.805 3.596
O -1.951 -0.393 6.851
N -5.562 -5.374 3.847
C -5.386 -6.215 4.901
N -6.563 -6.823 5.196
C -7.493 -6.382 4.344
C -8.854 -6.663 4.189
P -4.737 -0.401 1.052
O -5.859 -0.612 -0.228
O -1.629 5.069 4.205
O -3.364 0.289 0.414
C 1.626 6.222 6.018
C -3.173 1.63 0.734
O -4.345 -1.931 1.661
C 1.753 6.635 3.715
O 1.018 4.529 4.516
C -3.233 2.522 -0.461
C 0.931 5.892 4.707
N 3.928 5.585 5.767
C -1.841 2.622 2.569
N -9.642 -4.482 1.344
C -3.736 -2.756 0.748
C 0.307 0.071 6.602
O -4.591 -4.677 1.816
N -7.606 -4.893 2.551
C 1.401 0.072 5.76
N 1.264 -0.352 4.492
N -1.019 -0.799 4.813
C -2.467 -3.989 2.529
P -0.506 3.797 4.434
O 2.933 7.036 4.265
O -1.044 2.459 0.31
O 2.644 4.661 2.776
C 3.92 4.489 6.539
C 2.433 -0.336 3.628
O -0.023 -1.176 2.825
C 5.112 5.548 5.087
O 2.198 2.087 1.803
C 5.793 4.421 5.471
C -3.416 -4.088 1.382
N -4.739 -3.162 -4.242
C 0.069 -0.787 4.011
O -1.225 -4.526 2.226
N 5.043 3.768 6.375
C 2.978 6.643 5.591
O -0.546 2.79 3.079
C -1.93 3.279 -0.389
C -2.004 4.669 -2.327
C -1.808 1.822 1.282
P 2.665 3.666 1.395
O 4.187 0.273 -0.574
O 1.561 4.241 0.261
O 4.066 3.699 0.844
C 7.033 4.199 4.89
C 3.23 -0.082 1.628
O 2.086 -0.577 2.302
C -1.647 -5.129 -4.488
O -1.402 -6.36 -4.608
C -3.352 -3.506 -4.303
C 3.092 -0.192 0.15
N 7.514 5.072 3.993
C -0.381 2.948 -2.247
N 5.65 6.388 4.181
C 6.843 6.185 3.614
C 1.917 5.799 2.462
N -1.419 3.641 -1.694
N -2.967 -4.793 -4.432
C 3.107 1.019 3.677
N 7.794 3.067 5.225
C 3.286 1.314 2.174
P 4.23 -0.473 -2.086
O 4.389 -6.999 -3.578
O 3.954 0.616 -3.357
O 1.096 -5.513 -3.544
C 3.343 -6.251 -3.065
C 0.714 -4.588 -4.475
O 2.999 -1.656 -2.147
C 3.58 -0.123 -4.449
O 5.538 -1.23 -2.279
C 2.311 0.329 -5.129
C -1.035 -2.933 -4.292
N -0.663 -4.238 -4.422
C -2.352 -2.546 -4.231
O 0.152 1.99 -1.638
N 0.051 3.321 -3.458
C -1.579 5.073 -3.573
N -0.069 4.76 -5.41
C -0.516 4.349 -4.118
C -1.3 -0.298 -7.73
P 4.529 -3.965 -5.883
O 3.155 -4.37 -5.038
O 4.344 -3.987 -7.369
O 4.951 -2.375 -5.397
C 2.186 -6.235 -4.005
C 1.143 -5.238 -5.792
O 4.157 0.976 -6.381
C 2.583 -5.576 -5.327
O 5.811 -4.945 -5.384
C 4.506 -1.427 -6.33
C 4.56 -0.082 -5.607
N 2.272 0.53 -7.596
C 2.999 0.294 -8.73
N 2.197 -0.214 -9.683
C 0.947 -0.319 -9.196
C -0.222 -0.777 -9.776
O -0.232 -1.19 -10.956
N -1.343 -0.756 -9.013
C 1.013 0.148 -7.899
N -2.524 -0.31 -7.003
N -0.137 0.141 -7.199
C 2.772 1.066 -6.352
