120
./arbalign_output/215d_DNA_conf27-aligned_to-215d_DNA.xyz
O -10.896 1.932 5.377
C -9.871 1.556 4.753
C -7.892 2.161 3.594
O -2.825 -0.425 7.086
C -6.449 0.395 2.666
O -4.546 -0.895 4.926
C -5.202 0.816 3.366
C -8.456 -0.121 3.852
N -9.015 2.488 4.274
C -4.436 -0.449 3.609
O -3.503 -5.661 4.423
N -7.627 0.856 3.391
C -2.461 -5.809 3.725
N -1.238 -5.943 4.202
C -10.476 -0.841 5.035
C -9.573 0.233 4.53
P -3.029 -1.162 5.577
O -7.1 3.042 3.151
O -6.275 5.057 -1.57
O -6.417 -0.959 2.563
C -2.052 4.391 5.136
C -4.525 -1.397 1.27
O -1.77 -0.699 4.552
C -5.494 4.901 -2.566
O -3.216 -1.811 1.195
C -2.751 3.861 2.589
C -1.291 3.514 4.4
N -3.51 4.719 3.283
C -3.167 4.998 4.578
N -3.966 5.91 5.322
C -5.117 -1.399 2.65
C -0.551 -0.654 5.233
O -2.904 -2.652 5.813
N -3.756 -5.718 1.6
C -2.646 -5.83 2.34
N 1.172 -6.25 4.021
N -1.469 4.459 6.36
C -0.395 3.644 6.346
P -2.754 -2.17 -0.403
O -4.22 -2.505 -1.225
O 0.117 3.495 -2.957
O -2.105 -1.03 -1.104
C 0.461 -0.085 4.269
C 1.816 0.107 4.952
O 2.757 0.5 4.039
C -3.335 -5.808 0.325
O -1.884 -3.588 -0.372
C -1.528 -5.99 1.55
C -0.126 -6.102 3.462
N -1.656 3.254 3.112
C 1.469 1.387 5.734
O 5.12 0.221 5.041
N -0.269 3.049 5.138
C 0.704 2.115 4.653
O 0.037 1.169 3.898
C -4.239 4.389 -2.325
C -5.035 5.054 -4.879
C -3.384 4.215 -3.394
P 4.172 -0.362 3.993
O 4.97 -0.111 2.503
O 0.27 0.052 -3.62
O 2.1 1.295 0.983
C 0.244 -4.322 -1.189
C 5.596 -1.259 2.045
O 4.009 -2.001 4.354
C 6.086 -1.109 0.621
O 0.106 -5.566 -0.659
C 4.95 -0.816 -0.333
C 1.044 -4.362 -2.47
N 7.262 -7.781 -2.816
C 1.548 2.157 -1.649
N -5.853 5.216 -3.822
C -1.169 -3.881 -1.523
C -2.329 3.566 -1.632
N -3.562 3.976 -1.219
N -2.007 -5.971 0.271
C -1.133 -6.103 -0.897
N -0.324 -6.119 2.113
C -1.749 -5.233 -1.994
P 3.124 0.974 -0.072
O 6.687 -2.283 0.242
O 1.185 -3.097 -2.985
O 3.775 -0.517 0.306
C 6.112 -6.186 -1.335
C 5.87 -4.898 -0.894
O 4.312 2.172 -0.184
C 6.318 -2.529 -1.078
O 1.334 -3.232 -5.553
C 3.633 -1.237 -5.525
C 4.854 -2.134 -1.07
N 6.536 -3.874 -1.486
C -0.224 1.253 -3.168
O 2.301 0.993 -1.557
N -2.219 3.712 -2.969
C -1.02 3.357 -3.704
N -5.416 5.384 -6.215
C -1.094 1.931 -4.214
C 0.829 2.316 -2.971
P 2.184 -2.993 -4.32
O 8.055 -3.239 -3.066
O 4.996 0.618 -5.099
O 3.43 -4.128 -4.281
C 7.002 -6.479 -2.35
C 5.004 -0.765 -5.098
O 2.878 -1.461 -4.389
C 7.401 -4.159 -2.474
O 5.924 -2.742 -5.964
C 6.016 -1.355 -6.061
C 3.117 -0.02 -6.299
N 7.639 -5.415 -2.906
C 4.196 1.008 -6.173
N 3.707 2.363 -6.027
C 2.619 2.775 -6.694
C 2.749 4.927 -5.784
O 1.962 2.017 -7.479
N 2.299 6.259 -5.626
C 3.889 4.547 -5.065
N -3.815 4.552 -4.613
N 2.148 4.029 -6.578
C 4.314 3.246 -5.234
