120
./arbalign_output/215d_DNA_conf25-aligned_to-215d_DNA.xyz-noHydrogens.xyz
O -6.446 2.537 4.489
C -7.151 5.975 4.289
C -6.504 3.712 4.032
O -4.716 -1.272 -1.119
C -6.614 6.232 3.023
O -3.703 0.754 0.513
C -4.709 -4.434 2.275
C -4.571 -4.436 4.808
N -7.079 4.708 4.76
C -5.064 -6.34 3.793
O -3.877 -5.122 1.455
N -4.292 -3.878 7.429
C -4.601 -5.139 7.076
N -4.775 -6.149 8.06
C -4.749 -5.447 5.741
C -4.127 -2.92 6.494
P -0.71 3.637 2.536
O -1.483 4.979 3.224
O -5.105 3.282 0.816
O -1.867 2.614 1.899
C -6.026 5.209 2.279
C -4.101 2.525 2.782
O 0.014 2.909 3.667
C -2.524 6.715 -2.774
O 0.444 4.079 1.419
C -3.759 3.176 0.554
C -3.095 3.253 1.904
N -5.987 3.969 2.809
C -5.383 2.84 2.08
N -7.743 7.034 5.031
C -4.271 -3.018 2.295
C 2.535 0.65 7.231
O -2.885 -1.826 0.817
N -5.045 -6.58 5.105
C 2.592 -0.463 6.416
N 2.337 0.508 8.631
N -4.26 -3.17 5.167
C -3.732 -2.894 0.851
P -3.333 -0.653 -0.317
O 1.09 5.4 -0.741
O -2.056 10.107 -3.62
O -2.282 -0.453 -1.392
C 2.867 2.007 5.348
C -2.793 -4.727 -0.611
O 0.87 -1.813 2.606
C 3.142 1.137 3.087
O 3.747 2.374 2.944
C 1.202 -4.114 2.653
C 0.502 -4.186 3.981
N 2.675 1.868 6.672
C 2.79 -0.279 5.065
O -2.201 -5.989 -0.618
N -4.77 -5.015 3.618
C -3.05 -4.251 0.803
O 2.994 3.148 4.846
C -3.389 1.907 -0.164
C -1.813 8.918 -3.261
C -0.242 7.252 -2.569
P -1.143 -6.19 -1.93
O -1.606 -5.13 -3.148
O 0.114 2.916 -2.349
O 4.766 1.152 0.47
C 1.712 -5.227 2.027
C 1.714 -7.309 -0.064
O 0.444 -5.836 -1.469
C 2.44 -3.904 0.286
O -1.243 -7.59 -2.427
C 5.109 0.901 1.789
C 4.004 0.087 2.484
N 1.944 -2.794 0.89
C 1.691 5.856 -1.894
N -1.258 6.376 -2.488
C 1.382 4.024 -0.703
C 0.287 3.43 0.198
N -3.531 5.718 -2.656
N 2.929 0.942 4.512
C 1.313 -2.865 2.084
N 2.343 -5.131 0.822
C 5.081 2.131 2.621
P 5.823 0.39 -0.589
O 3.342 -5.99 -1.082
O 7.172 1.061 -0.49
O 6.074 -1.231 -0.155
C 2.878 -6.325 0.156
C 1.262 -6.932 -1.506
O 3.003 -3.736 -0.811
C 4.533 -0.572 -2.584
O 5.338 0.49 -2.19
C 2.371 0.374 -4.66
C 5.626 3.368 2.0
N 1.856 0.973 -5.875
C 1.317 3.532 -2.107
O 6.965 3.272 1.633
N 1.072 7.095 -2.322
C -0.496 8.554 -2.96
N -2.77 7.98 -3.154
C 1.645 8.3 -2.558
C 1.567 4.772 -2.936
P 4.114 -4.132 -4.588
O 3.918 -5.527 -3.652
O 3.467 -4.274 -5.922
O 3.559 -2.763 -3.747
C 2.616 -6.626 -2.078
C 2.578 -5.72 -3.294
O 3.724 0.624 -4.537
C 3.57 -1.694 -4.605
O 5.787 -3.936 -4.805
C 4.328 -0.506 -4.06
C 2.178 -1.116 -4.774
N 5.419 1.008 -9.204
C 4.104 1.258 -8.722
N 3.224 1.837 -9.559
C 1.587 1.781 -7.918
C 1.95 2.126 -9.224
O 1.14 2.667 -10.02
N 0.685 9.189 -2.947
C 0.581 1.433 -6.017
N 0.421 1.923 -7.259
N 3.734 0.93 -7.458
C 2.489 1.185 -7.048
