120
./arbalign_output/215d_DNA_conf12-aligned_to-215d_DNA.xyz
O -7.175 1.036 3.82
C -8.682 1.154 -0.148
C -8.061 1.174 1.227
O -5.419 -3.268 4.338
C -8.433 2.42 -0.911
O -4.979 -0.056 2.953
C -5.677 -1.191 3.37
C -5.033 -1.924 4.501
N -6.082 -4.644 2.527
C -5.289 -3.514 2.992
O -0.562 -1.612 5.175
N -6.301 -6.655 1.296
C -7.615 -6.732 1.665
N -8.448 -7.807 1.228
C -8.191 -5.764 2.475
C -7.375 -4.707 2.899
P -6.085 1.226 2.803
O -5.274 2.675 3.16
O -7.54 3.279 -0.256
O -6.692 1.287 1.217
C -7.195 0.616 -1.714
C -0.871 3.179 3.705
O -0.891 1.137 4.883
C -1.677 6.132 0.555
O 1.324 3.293 4.46
C -7.51 -0.356 -4.032
C 0.269 4.067 4.06
N -1.259 5.448 1.641
C -7.752 1.949 -2.194
N -6.95 -0.263 -2.831
C -5.669 -2.248 2.259
C -3.53 -1.8 4.495
O -3.086 -0.486 4.66
N -3.31 -3.05 -1.046
C -5.572 -5.609 1.74
N 6.105 -5.769 4.787
N -5.116 -1.602 -1.816
C -0.322 1.799 3.828
P -1.416 -0.382 4.378
O -8.209 0.087 -0.91
O -4.72 3.739 -4.583
O 1.612 2.348 1.749
C 0.448 6.983 0.112
C -4.252 -2.614 -2.017
O -4.35 -5.565 1.381
C -5.986 -1.915 -3.985
O 1.012 1.576 -0.86
C 4.777 -2.448 4.131
C 1.967 1.589 2.858
N -6.938 -1.349 -4.741
C 1.16 1.994 4.081
O 5.526 -4.083 6.109
N 0.701 4.951 2.997
C -5.995 -1.236 -2.793
O -1.151 -0.542 2.906
C 0.016 5.51 1.995
C -3.005 4.635 -2.622
C 0.882 6.274 1.238
P 2.175 1.621 0.339
O 2.769 0.091 0.741
O -5.059 -3.601 -5.272
O 3.381 2.443 -0.108
C 5.628 -4.521 4.931
C 6.266 -6.365 3.569
O 5.716 -1.776 4.866
C 7.867 -1.143 3.998
O 8.444 -1.056 5.246
C 5.798 -0.98 2.66
C 6.375 -0.885 4.057
N 6.778 -7.687 3.473
C -2.162 2.306 -2.647
N 2.097 6.174 1.79
C -5.105 -2.951 -4.198
C 1.983 5.372 2.854
N -0.846 6.884 -0.197
N -4.264 -3.264 -3.197
C 4.461 -1.594 2.975
N 5.272 -3.767 3.85
C -0.847 0.168 -1.163
P 6.696 0.27 0.707
O 7.759 -1.042 0.803
O 2.919 -1.347 -1.984
O 7.588 1.511 0.813
C 5.907 -5.603 2.481
C 5.41 -4.304 2.644
O 5.684 0.261 2.053
C 6.393 1.213 -1.676
O 5.872 0.295 -0.762
C 1.758 -1.348 -2.759
C 1.005 -0.044 -2.627
N -2.145 1.032 -3.088
C 0.64 0.274 -1.2
O -0.137 -0.107 -3.382
N -3.906 1.601 -4.571
C -3.051 3.252 -3.159
N 1.396 7.737 -0.606
C -3.934 2.874 -4.141
C -1.243 0.024 -2.584
P 4.137 -2.032 -2.94
O 5.224 -2.499 -2.0
O 9.374 3.989 -9.587
O 4.807 -0.924 -3.989
C 5.742 1.073 -3.033
C 5.97 -0.315 -3.596
O 6.294 1.998 -3.889
C 6.973 -0.066 -4.672
O 3.505 -3.402 -3.694
C 8.744 2.385 -5.689
C 6.54 1.33 -5.094
N 9.28 2.978 -6.793
C 8.365 2.964 -7.772
N 7.221 3.228 -9.81
C 8.368 3.425 -9.093
C 6.153 2.632 -9.297
O -3.021 -0.479 -4.471
N 4.936 2.408 -10.027
C -3.041 0.711 -4.062
N 6.144 2.182 -8.012
N 7.482 1.986 -5.952
C 7.26 2.349 -7.242
