120
./arbalign_output/215d_DNA_conf30-aligned_to-215d_DNA.xyz-noHydrogens.xyz
O -2.965 4.596 6.4
C -7.79 1.338 1.968
C -7.055 2.365 1.211
O -2.761 -1.462 6.285
C -6.377 3.403 1.821
O -0.985 3.251 5.116
C -4.258 -3.729 4.122
C -3.625 -2.188 5.691
N -4.888 -2.074 6.141
C 3.226 -2.346 9.019
O 0.861 1.177 7.431
N 4.588 -3.878 10.244
C 3.552 -3.649 9.287
N -7.227 -2.748 5.981
C -5.869 -2.795 5.581
C -5.573 -3.665 4.53
P -1.767 4.745 5.221
O -2.407 5.28 3.777
O -7.621 1.382 -0.819
O -0.749 5.755 5.698
C -3.429 4.523 3.261
C -0.306 2.959 6.306
O -2.423 0.84 3.148
C -7.039 2.285 -0.162
O -3.657 5.324 1.113
C -4.972 5.427 1.637
C -3.147 4.206 1.815
N -6.373 3.209 -0.879
C -4.693 5.398 3.099
N -5.715 4.321 1.11
C 0.167 1.557 6.252
C 1.125 -0.158 7.124
O -1.565 -1.714 3.936
N 3.66 -1.156 9.454
C 2.961 -0.182 8.83
N 2.938 -4.684 8.687
N 2.092 -0.771 8.006
C -1.902 -3.049 4.283
P -0.215 2.98 -0.342
O -1.611 3.775 0.126
O -5.116 5.045 -0.982
O 0.095 1.984 0.755
C 1.206 1.236 5.228
C 1.971 -4.463 7.793
O 1.963 2.899 3.028
C -2.174 -2.658 1.973
O 4.105 3.783 4.195
C -1.673 -3.709 2.944
C 2.227 -2.119 8.096
N 1.638 -3.179 7.519
C 1.567 -0.205 5.68
O 2.319 2.055 5.449
N -3.274 -3.011 4.678
C -2.479 -1.507 2.907
O -3.009 -1.69 -0.734
C -1.689 3.984 1.525
C -5.727 4.203 -0.252
C -2.274 -0.171 2.232
P 3.054 2.466 3.969
O -1.172 -2.231 1.089
O 1.139 4.01 -0.428
O -0.498 -1.857 -1.588
C 3.397 -2.58 -0.363
C 5.3 -1.907 1.049
O 3.854 1.141 3.327
C 2.823 -3.5 -1.218
O -1.944 -4.047 -0.867
C 5.749 0.256 0.267
C 5.223 0.244 1.66
N 3.01 -5.652 -2.404
C -2.078 0.771 -5.007
N -0.832 1.254 -5.294
C 0.674 1.564 -2.331
C -0.265 -0.491 -1.436
N -2.975 1.329 -5.853
N 4.607 -2.799 0.15
C 4.344 1.383 2.055
N 4.747 -4.861 -1.007
C 0.643 0.048 -2.533
P -1.684 -2.402 -0.519
O 4.499 -0.972 1.657
O 4.498 2.984 -1.533
O 4.728 0.33 -0.663
C 5.263 -3.944 -0.185
C 6.334 -1.179 0.206
O 0.113 -0.156 -3.781
C 5.027 0.871 -4.421
O 4.241 0.894 -3.293
C 1.156 -1.421 -7.465
C -0.54 -2.865 -6.766
N -0.889 -3.975 -5.953
C 0.906 2.022 -3.745
O -0.428 2.076 -1.737
N -1.447 -2.25 -7.542
C -2.299 2.154 -6.665
N -1.765 3.693 -8.342
C -0.958 2.124 -6.333
C 0.422 0.903 -4.612
P 5.047 1.407 -1.901
O 6.416 -4.181 0.287
O 5.54 1.627 -7.428
O 6.531 1.54 -2.199
C 3.527 -4.648 -1.529
C 4.267 0.521 -5.69
O -1.941 -0.603 -9.052
C 3.564 -1.189 -6.952
O 3.667 -0.714 -5.653
C 4.786 -0.664 -7.69
C 5.317 0.428 -6.792
N 2.357 -0.796 -7.632
C 2.126 0.181 -8.51
N 0.844 0.206 -8.906
C -1.109 -1.198 -8.314
C -0.452 3.641 -7.991
O -3.929 3.001 -8.012
N 0.523 4.415 -8.678
C -2.7 2.975 -7.711
N -0.024 2.85 -6.974
N 0.756 -2.468 -6.715
C 0.217 -0.793 -8.261
