120
./arbalign_output/215d_DNA_conf31-aligned_to-215d_DNA.xyz
O -7.466 1.134 -1.098
C -6.587 4.405 0.888
C -5.072 0.7 4.112
O -2.582 1.622 4.899
C -5.135 2.811 2.79
O -5.328 2.671 -0.17
C -4.446 1.982 3.668
C -4.232 -4.157 3.188
N -3.283 -2.981 4.773
C 1.209 -2.631 6.743
O 1.082 -3.023 7.942
N -5.904 -5.464 4.849
C -5.065 -4.573 5.389
N -5.007 -4.277 6.779
C -5.912 -5.703 3.506
C -4.213 -3.906 4.542
P -5.789 1.276 -0.955
O -2.858 5.399 2.458
O -4.408 5.135 0.405
O -5.209 1.091 -2.318
C -3.199 2.366 4.113
C -3.42 4.329 2.803
O -5.251 -0.03 0.014
C -5.099 4.92 -0.771
O -3.445 3.609 -1.973
C -6.079 3.786 -0.436
C -3.294 -1.114 0.823
N -2.727 3.542 3.657
C -5.299 4.885 1.452
N -4.653 3.974 2.348
C -2.725 -2.655 3.574
C 0.796 -1.026 5.066
O -3.797 -2.383 0.529
N 0.67 -1.457 6.333
C 1.911 -3.434 5.872
N 2.554 -4.609 5.926
N -5.087 -5.062 2.663
C -2.948 -3.274 1.194
P -2.667 3.444 -3.469
O -1.01 3.782 -3.318
O -3.282 4.358 -4.502
O -2.77 1.862 -4.061
C 3.206 2.401 4.469
C 4.921 1.959 6.068
O -1.373 -1.06 -0.545
C 2.069 0.513 0.306
O 2.517 2.058 1.987
C 2.975 0.867 1.461
C 2.036 -2.984 4.573
N 5.26 1.642 7.402
C 3.579 2.095 5.746
O 0.739 0.349 0.671
N -3.308 -3.379 2.6
C -1.552 -2.731 1.066
O -0.846 1.55 -1.176
C -3.863 -0.084 -0.095
C -4.289 4.687 -1.983
C -1.789 -1.25 0.747
P -0.149 0.073 -0.737
O 6.27 2.605 2.937
O 1.9 3.358 -4.161
O 0.789 -0.435 -1.797
C 3.052 -4.864 4.699
C 3.021 -5.036 1.725
O 4.365 -3.23 2.326
C 4.915 -3.719 1.166
O 5.57 -1.57 0.439
C 4.372 1.125 0.889
C 3.067 -3.721 2.444
N 5.799 2.142 5.078
C -0.359 3.623 -4.54
N 4.12 2.586 3.465
C 2.63 6.345 -0.956
C 3.619 2.902 2.179
N 0.244 0.202 4.604
N 1.478 -1.806 4.219
C 5.403 2.447 3.813
N 2.747 -3.879 3.847
C 4.418 2.619 0.986
P 5.584 -0.394 -0.769
O 3.736 -4.948 -0.519
O -1.475 -0.243 -7.836
O 6.942 0.19 -1.022
C 4.202 -4.983 0.78
C 4.853 -2.704 0.033
O 4.417 0.751 -0.435
C 1.793 -3.922 -6.012
O -2.328 -2.96 -6.635
C -0.129 -3.858 -7.098
C -1.323 -3.79 -6.202
N 2.273 5.689 -2.097
C 0.743 2.631 -4.391
O -0.34 0.992 -5.775
N 1.983 5.988 0.257
C 0.349 4.915 -4.861
N 3.566 7.302 -0.976
C 4.198 7.665 -2.102
C 2.88 6.013 -3.275
P -0.214 -0.106 -7.054
O 5.116 -1.159 -2.226
O 0.993 0.51 -8.083
O 3.763 -2.701 -4.739
C 5.373 -5.734 -5.005
C 3.966 -3.91 -5.04
O 0.22 -1.608 -6.43
C 4.442 -6.512 -5.671
O 0.831 -4.725 -6.581
C 3.231 -5.905 -6.014
C 2.002 -2.911 -7.149
N 6.65 -6.252 -4.604
C 0.526 -2.551 -7.392
N 5.138 -4.443 -4.691
C 1.824 4.499 -4.956
C 3.589 6.227 -5.292
O 5.078 8.555 -2.158
N 4.267 7.114 -4.547
C 3.849 7.009 -3.274
N 2.719 5.529 -4.527
N 3.0 -4.617 -5.699
C 0.854 1.7 -5.581
