120
./arbalign_output/215d_DNA_conf47-aligned_to-215d_DNA.xyz
O -3.77 6.021 7.783
C -5.967 3.343 5.787
C -4.477 4.866 5.48
O -7.66 1.728 5.957
C -4.969 4.635 4.098
O -4.644 3.665 6.177
C -2.92 6.034 6.843
C -5.826 3.365 4.29
N -3.198 5.466 5.629
C -2.403 -1.379 6.284
O -4.7 -1.601 6.268
N -2.161 -0.16 6.782
C -2.323 -3.912 5.228
N -3.528 -3.329 5.511
C -3.563 -2.08 6.031
C -6.368 1.996 6.343
P -7.306 2.471 2.403
O -7.058 3.515 3.708
O -8.297 3.17 1.49
O -8.019 1.054 2.973
C -0.759 6.704 6.175
C -1.003 6.141 4.939
O -5.887 2.094 1.608
C -5.128 7.391 -2.198
O -3.954 -0.212 -1.983
C -6.599 4.196 -2.465
C -4.918 1.139 -0.337
N 0.492 7.328 6.433
C -2.231 5.54 4.721
N -1.738 6.627 7.089
C -6.179 1.375 0.463
C -1.186 -1.979 5.993
O 1.869 -0.146 6.586
N -1.201 -3.216 5.48
C 1.241 -1.304 6.188
N -2.337 -5.221 4.683
N -0.211 -1.113 6.321
C -0.82 -0.009 6.801
P -4.026 -1.819 -2.411
O -4.323 2.337 -0.72
O -5.968 8.305 -2.401
O -5.088 -1.941 -3.504
C -5.446 1.459 -2.581
C 3.018 1.555 5.286
O 4.028 4.417 5.006
C -1.275 0.032 0.684
O 2.833 3.487 2.661
C -1.861 -1.216 0.694
C 1.511 -1.351 4.7
N -5.324 3.895 -2.176
C 2.953 0.111 5.793
O 4.119 1.751 4.469
N -1.565 -3.665 0.776
C -5.161 0.345 -1.574
O -4.346 -2.858 -1.137
C -4.684 5.076 -2.055
C -5.593 6.087 -2.276
C -4.681 2.628 -2.01
P 4.061 3.265 3.769
O 2.035 -0.849 0.86
O 1.687 1.69 -0.131
O 5.393 3.489 3.041
C 2.965 -0.867 4.666
C 4.513 -3.075 -0.863
O 3.725 -1.997 5.02
C 5.439 -1.997 -1.272
O 0.141 -3.984 -1.869
C 3.544 -3.599 -1.835
C 0.798 -0.927 0.806
N 6.572 -7.31 -3.083
C 2.566 2.595 0.456
N -3.419 5.418 -1.782
C 0.622 1.529 0.729
C 1.014 2.033 2.093
N -6.784 5.528 -2.531
N 0.078 0.208 0.739
C -1.07 -2.352 0.763
N 0.254 -2.155 0.817
C 2.492 2.349 1.942
P 5.563 0.423 -0.748
O 5.437 -4.131 -0.641
O 2.509 -2.816 -2.247
O 6.704 -0.226 0.312
C 6.438 -6.47 -2.021
C 6.393 -4.054 -1.617
O 4.291 1.05 0.138
C 6.259 -2.751 -2.33
O 4.938 -0.824 -1.7
C -0.419 -4.688 -5.84
C -0.485 -3.706 -4.686
N 6.498 -5.19 -2.484
C 3.929 2.336 -0.141
O -2.523 -2.189 -3.149
N -1.625 6.936 -1.408
C -2.983 6.688 -1.71
N -3.851 7.698 -1.921
C -2.665 -2.439 -4.486
C -1.326 -2.613 -5.221
P 1.29 -3.811 -2.851
O 1.955 -5.383 -3.001
O 1.836 -3.634 -11.435
O 0.784 -3.239 -4.349
C 6.709 -6.553 -4.162
C 6.667 -5.224 -3.821
O 6.274 1.463 -1.571
C 6.88 -6.883 -5.495
O -1.952 -4.892 -9.411
C 6.947 -4.564 -6.003
C 1.614 -3.272 -9.182
N 6.938 -8.257 -5.922
C 2.978 -2.645 -9.06
N 6.997 -5.869 -6.404
C 1.142 -3.729 -10.4
C -0.803 -4.377 -9.372
O -1.664 -2.847 -6.529
N -0.076 -4.287 -10.5
C -1.154 -4.038 -6.959
N -0.37 -3.941 -8.175
N 6.78 -4.237 -4.7
C 0.849 -3.379 -8.058
