120
./arbalign_output/215d_DNA_conf26-aligned_to-215d_DNA.xyz
O -6.68 3.951 3.602
C -5.628 7.901 3.02
C -3.634 3.083 5.031
O -5.734 1.601 4.128
C -3.571 6.681 3.67
O -3.946 3.414 3.74
C -2.312 3.657 5.489
C -2.259 -2.34 6.18
N -5.86 -4.436 5.368
C -2.24 -4.516 5.829
O 0.458 -2.149 6.363
N -3.518 -2.723 5.954
C -2.98 -6.679 5.379
N -4.249 -6.245 5.284
C -4.533 -4.955 5.457
C -3.532 -4.032 5.739
P -5.474 2.803 3.28
O -2.295 5.04 5.426
O -3.984 8.954 0.987
O -5.397 2.478 1.628
C -4.194 7.572 2.817
C -1.563 5.456 4.345
O 0.056 3.258 5.39
C -1.588 6.947 2.482
O -4.222 0.373 -0.599
C -3.441 8.134 1.786
C -1.056 4.235 3.607
N -2.136 7.818 1.621
C -6.297 0.734 0.313
N -2.275 6.38 3.491
C -5.302 1.108 1.358
C -0.038 -3.459 6.29
O 0.468 0.474 5.371
N -1.483 -3.436 6.103
C 0.659 -4.137 5.131
N -1.955 -5.825 5.653
N -5.504 2.046 -1.634
C -1.128 3.155 4.71
P 1.125 2.001 5.229
O -0.359 6.665 2.308
O -4.112 5.451 -4.203
O 1.712 2.09 3.816
C -3.261 -0.271 1.497
C 1.309 -0.506 4.797
O 2.462 2.227 6.262
C 0.466 -0.819 -1.222
O -3.3 -4.151 0.769
C -0.65 -2.678 -0.492
C 1.56 -2.995 4.631
N -3.274 1.898 -2.748
C 0.653 -1.835 5.012
O -1.889 -2.811 2.451
N -6.005 4.05 -2.441
C -4.008 0.763 0.713
O -3.906 -1.506 1.515
C -4.791 3.704 -2.904
C -6.432 3.016 -1.659
C -5.506 0.769 -0.947
P -2.666 -2.668 1.163
O 1.823 -3.077 3.286
O -1.675 -1.969 0.044
O 3.805 -2.637 1.397
C 4.735 -1.603 1.465
C 5.125 -1.086 0.086
O 4.357 -2.578 3.915
C 5.69 -2.201 -0.769
O 3.772 -4.919 2.898
C 2.29 0.446 -2.222
C -0.181 -3.86 -2.674
N 8.083 0.539 -0.9
C 2.35 2.117 -0.087
N 4.14 3.385 -1.04
C 1.463 1.067 -0.175
C -4.462 2.44 -2.402
N -1.156 1.917 -3.89
N 1.421 0.225 -1.234
C 0.622 -1.857 -0.135
N -2.19 -7.346 -7.298
C -0.569 -2.571 -2.0
P 3.443 -3.255 2.926
O 3.884 -4.357 -1.438
O -0.169 -3.623 -4.066
O 8.26 0.372 1.31
C 7.153 -1.724 -0.877
C 8.747 0.812 0.236
O 6.048 -0.069 0.158
C 6.87 -0.216 -0.926
O 5.087 -2.134 -2.017
C 3.693 -2.728 -4.869
C -2.167 -5.903 -7.344
N 9.891 1.532 0.212
C 3.232 2.296 -1.148
O 0.378 -1.611 -2.329
N 3.176 1.463 -2.175
C -3.866 4.311 -3.723
N -2.687 3.761 -4.059
C -2.397 2.55 -3.566
C -3.364 -3.882 -7.362
P 4.466 -3.578 -2.576
O 5.657 -4.495 -3.395
O 4.498 -2.405 -7.336
O 3.228 -3.333 -3.716
C 10.418 2.006 -0.931
C 8.587 1.003 -2.074
O 2.288 -0.295 -3.205
C 9.753 1.738 -2.11
O 1.951 -3.577 -6.329
C 1.434 -3.258 -7.577
C 2.623 -2.451 -5.873
N 11.628 2.771 -0.964
C 3.263 -1.817 -7.091
N 0.028 -2.953 -7.53
C 2.274 -2.179 -8.164
C -0.593 -1.743 -7.544
O -4.47 -3.261 -7.338
N -1.913 -1.903 -7.485
C -2.177 -3.219 -7.432
N -3.35 -5.234 -7.319
N -1.009 -5.221 -7.414
C -0.961 -3.892 -7.459
