120
./arbalign_output/215d_DNA_conf34-aligned_to-215d_DNA.xyz-noHydrogens.xyz
O -7.409 3.683 1.471
C -8.808 2.941 4.589
C -8.802 1.553 4.546
O -2.068 -0.448 6.9
C -7.848 3.022 2.44
O -3.265 -2.068 2.585
C -8.304 0.916 3.419
C -2.888 -3.157 4.608
N -9.324 3.553 5.76
C -1.356 -7.432 5.084
O -0.48 -2.026 8.28
N -2.233 -6.568 4.563
C -1.692 -4.649 6.015
N -1.289 -8.505 4.303
C -2.669 -5.281 5.01
C -2.03 -3.188 5.832
P -0.753 -1.216 6.806
O -6.797 -0.354 -1.529
O -6.638 1.778 0.4
O -4.083 0.454 1.714
C -6.394 -0.121 1.713
C -5.14 0.076 0.887
O 0.503 -0.154 6.524
C -0.967 4.934 0.769
O -0.713 5.116 3.457
C -5.771 0.561 -1.483
C -5.534 1.127 -0.098
N -7.845 1.673 2.407
C -7.33 0.943 1.241
N -8.333 3.645 3.539
C -2.478 -1.96 3.747
C -2.718 -7.14 3.42
O -0.888 -2.421 5.607
N -3.624 -6.706 2.511
C -2.114 -8.38 3.254
N -3.38 -8.626 1.29
N -4.927 -6.9 0.536
C 0.463 0.278 5.21
P -0.137 3.684 2.713
O -0.035 3.986 1.052
O -0.012 6.066 -1.169
O 1.308 3.246 3.42
C 1.328 1.834 3.55
C 4.631 2.837 5.27
O 3.85 2.791 6.243
C 2.598 1.272 2.983
O -1.53 -0.252 1.947
C 3.441 0.996 4.173
C -2.465 -9.122 2.161
N 4.514 1.995 4.203
C -3.97 -7.434 1.436
O -2.648 -4.341 3.952
N 5.623 3.761 5.292
C 1.417 1.465 5.006
O -1.232 2.651 2.975
C -1.112 5.451 -0.579
C -0.6 6.58 -2.333
C -1.618 5.561 -2.809
P -2.904 -0.75 1.597
O -2.825 -1.299 -0.015
O -0.453 3.645 -1.978
O 7.428 4.742 4.312
C 3.089 -5.23 -0.109
C 4.992 -4.433 1.287
O 2.694 1.12 5.3
C 2.797 -6.378 -0.836
O -1.938 -10.249 1.98
C 7.38 3.165 2.086
C 5.681 -2.322 0.968
N 3.827 -7.222 -0.712
C 6.42 3.048 3.194
N 0.041 -3.299 -0.762
C 6.504 3.879 4.289
C -1.507 4.506 -1.678
N 0.362 6.704 -3.409
N 2.174 -4.26 -0.111
C 5.394 2.107 3.193
N 4.312 -5.428 0.439
C 0.994 -4.344 -0.777
P -1.017 2.059 -2.237
O 4.587 -3.172 0.964
O 0.297 1.058 -2.419
O 4.259 -0.519 0.502
C 4.749 -6.64 0.066
C 6.468 -4.538 1.008
O 2.47 1.162 -0.258
C 1.606 -6.448 -1.501
O 3.137 -0.574 -2.039
C 2.902 0.01 -3.253
C 5.418 -1.158 0.018
N 0.685 -5.449 -1.491
C 0.501 0.573 -3.682
O -2.007 1.68 -0.926
N 2.183 6.846 -4.541
C 0.001 6.835 -4.7
N -1.185 6.89 -5.363
C 1.685 6.707 -3.286
C 1.56 -0.475 -3.747
P 3.663 0.417 -0.809
O 8.014 -2.71 0.728
O 4.412 -0.877 -7.036
O 1.766 -0.986 -5.053
C 6.778 -3.215 0.371
C 3.144 -3.836 -5.822
O 4.79 1.556 -1.296
C 3.563 -4.711 -6.798
O 1.29 -7.466 -2.174
C 4.291 -4.235 -7.874
C 2.944 -1.695 -4.807
N 4.757 -5.101 -8.923
C 4.126 -2.088 -6.929
N 4.557 -2.907 -7.908
C 1.069 7.071 -6.802
C -1.272 7.03 -6.699
O -1.933 2.031 -3.468
N 2.286 7.162 -7.544
C 1.164 6.928 -5.437
N -0.141 7.118 -7.391
N 3.419 -2.498 -5.868
C 3.82 -0.567 -4.348
