120
./arbalign_output/215d_DNA_conf4-aligned_to-215d_DNA.xyz
O -5.675 4.226 4.421
C -8.231 0.323 3.011
C -4.595 4.352 3.787
O -9.046 -1.15 5.156
C -4.44 3.862 2.487
O -3.237 -0.461 3.337
C -6.001 -0.725 3.421
C -3.798 -1.662 3.704
N -3.518 4.964 4.312
C -3.629 -2.638 2.56
O -4.925 -2.988 5.791
N -5.184 -1.548 4.114
C -5.699 -2.227 5.157
N -6.997 -2.102 5.518
C -7.846 -1.281 4.842
C -7.346 -0.577 3.772
P -3.914 -2.506 -0.916
O -5.02 -3.472 -0.511
O -4.591 -0.979 -1.247
O -1.237 1.025 2.265
C -4.657 2.956 0.521
C -3.279 3.989 1.787
O 1.029 1.605 3.653
C 0.309 6.548 -0.658
O -2.049 2.05 -0.806
C -2.93 3.979 -1.774
C -2.45 3.325 -0.509
N -1.291 5.761 4.28
C -2.371 5.095 3.631
N -5.306 3.204 1.673
C -3.067 -0.417 1.974
C -3.6 -1.681 1.389
O -2.839 -2.242 0.39
N 4.848 -5.812 6.16
C 5.522 -4.697 5.59
N 6.181 -3.884 6.455
N -2.244 4.612 2.373
C -1.586 -0.199 1.666
P 0.383 1.396 2.082
O -3.122 3.094 -3.963
O -1.638 7.011 -4.36
O 2.217 5.514 0.961
C 1.892 3.196 1.055
C 3.724 4.281 2.386
O 1.174 0.293 1.452
C -2.895 -4.662 -4.033
O 3.69 3.189 3.219
C 7.064 -0.059 4.934
C 6.86 -2.789 6.034
N 6.886 -2.492 4.701
C -3.629 -4.241 -2.772
O 4.975 3.236 5.435
N -3.398 3.433 0.567
C -2.28 1.762 -2.123
O 0.579 2.863 1.274
C -2.306 3.106 -2.834
C -0.112 6.293 -2.765
C 2.313 4.444 1.816
P 5.205 2.889 3.961
O 5.496 1.271 3.827
O 0.01 1.487 -2.618
O 6.392 3.911 3.405
C 5.547 -4.403 4.263
C 6.245 -3.275 3.818
O 7.454 -2.068 6.88
C 7.63 -1.306 4.337
O -0.651 -4.307 -0.346
C 2.769 -1.848 -1.01
C 5.906 -0.315 1.821
N 5.931 -8.012 -3.656
C 2.354 5.091 -0.337
N 1.264 5.708 -1.098
C 2.218 3.584 -0.354
C -1.214 0.861 -2.713
N -0.519 6.903 -1.651
N -1.63 -2.845 -6.762
C 6.823 0.875 3.777
N 4.772 -4.131 -2.554
C 1.531 -2.721 -0.764
P 0.005 -4.587 -1.673
O 7.758 -1.127 2.994
O 1.462 -3.692 -1.735
O 6.314 -1.07 0.745
C 4.748 -5.122 -1.631
C 7.163 0.048 2.595
O -0.971 -3.967 -2.89
C 4.386 -2.779 -2.239
O 1.401 -0.954 -2.806
C -0.857 -4.557 -5.156
C 2.695 -1.158 -2.327
N 5.544 -5.663 -4.179
C -1.445 -4.934 -3.777
O -3.123 -3.047 -2.283
N 1.599 4.831 -3.395
C -0.624 6.328 -4.058
N 0.023 5.586 -4.993
C 0.995 5.551 -2.422
C -1.741 -3.354 -5.431
P 1.261 0.637 -3.317
O 0.363 -6.217 -1.873
O -3.012 -3.71 -5.033
O 3.865 -2.666 -0.961
C 5.134 -6.409 -2.005
C 5.167 -4.421 -3.802
O 2.711 1.485 -3.024
C 5.541 -6.696 -3.297
O 5.2 -3.531 -4.674
C 1.797 -3.316 -8.028
C 3.434 -2.172 -3.213
N 1.598 -2.77 -9.224
C 0.398 -2.283 -9.569
N 0.208 -1.701 -10.853
C -0.684 -2.323 -8.706
C 1.107 4.862 -4.648
O 1.051 0.708 -4.828
N 1.717 4.112 -5.716
C -2.545 -2.259 -7.55
N -1.961 -1.95 -8.718
N 0.759 -3.364 -7.177
C -0.463 -2.892 -7.469
