75
./arbalign_output/25-2-aligned_to-25-1.xyz
O -7.17838 -12.6376 -12.06909
H -7.12733 -13.17169 -11.25328
H -8.12036 -12.39456 -12.12152
O -5.88764 -13.29098 -14.34259
H -5.31185 -12.54077 -14.53513
H -6.33931 -13.05117 -13.49174
O -7.08513 -18.38619 -17.09967
H -7.81981 -18.64231 -16.49849
H -5.0458 -15.05965 -14.12994
O -10.05101 -12.23913 -12.20567
H -10.23282 -12.56493 -13.12176
H -9.86214 -16.31101 -13.05039
O -9.09576 -18.62015 -15.23574
H -8.61875 -14.52191 -10.1261
H -7.56552 -14.79136 -9.03705
O -10.44967 -14.49763 -10.55609
H -10.44179 -13.63556 -11.01823
H -10.62042 -15.1574 -11.26186
O -10.73184 -15.60355 -8.04753
H -10.75888 -15.09212 -8.88469
H -11.44696 -15.24961 -7.50502
O -8.02124 -14.42055 -15.67617
H -7.62827 -16.88416 -17.69018
H -8.18816 -15.6666 -14.49312
O -7.36206 -18.68437 -10.90821
H -7.64106 -16.6041 -7.67891
H -9.83873 -21.34126 -13.28239
O -12.05747 -15.60341 -14.9448
H -11.62887 -16.09781 -15.68819
H -10.42425 -11.34944 -12.17136
O -4.78112 -15.93924 -13.80611
H -6.32802 -18.34542 -16.48755
H -5.04854 -17.43237 -14.57836
O -6.46111 -20.01929 -13.03617
H -7.32628 -20.31861 -13.36686
H -6.9403 -19.23689 -11.62162
O -10.7282 -16.39596 -12.57825
H -12.99332 -15.55342 -15.17632
H -11.38116 -16.2218 -13.28472
O -8.0833 -16.02407 -17.89585
H -7.90387 -14.85541 -16.5475
H -7.92689 -15.85996 -18.83339
O -7.55381 -18.42984 -8.24931
H -7.06825 -19.0774 -7.72311
H -7.32417 -18.62688 -9.19286
O -10.43692 -13.23121 -14.69458
H -11.04991 -13.98543 -14.78384
H -9.60833 -13.54844 -15.09912
O -5.19069 -18.35695 -14.90983
H -4.29911 -18.69945 -15.05501
H -6.07818 -19.44217 -13.73433
O -9.32571 -20.52493 -13.24319
H -6.80979 -17.13232 -11.35656
H -8.32414 -18.7001 -11.12904
O -7.84967 -15.6713 -7.48469
H -8.82236 -15.65069 -7.45911
H -10.31105 -18.67771 -10.41502
O -10.70945 -16.99588 -16.83706
H -7.18947 -13.95932 -15.45377
H -9.98224 -16.54711 -17.30226
O -10.07502 -18.75937 -11.37471
H -9.71268 -20.00268 -12.49413
H -10.43983 -17.95136 -11.80623
O -10.36371 -18.39432 -8.7083
H -10.60524 -17.48439 -8.45407
H -9.44074 -18.48373 -8.39791
O -6.60013 -16.24765 -11.74722
H -5.2779 -16.02532 -12.9663
H -7.66795 -16.29466 -13.14158
O -7.65921 -14.45147 -9.95658
H -9.28441 -19.36496 -14.62745
H -6.91414 -15.59594 -11.08166
O -8.35291 -16.39078 -13.8419
H -8.76878 -17.89543 -14.65534
H -10.25171 -17.68384 -16.31173
