300
./arbalign_output/300-2-aligned_to-300-1.xyz
NE -0.7442442179 -0.5379293561 0.4596628547
NE -0.001688743 0.0011374981 1.0272159576
NE 0.2816200852 -0.8715857863 0.4597614706
NE -1.5035853386 -1.0896338224 0.9287230372
NE -0.744137764 0.5409455299 0.4598862231
NE 0.2822986245 0.8740710616 0.4600444436
NE 0.916230619 0.0008726149 0.4600200057
NE -0.2854735255 -0.871339798 -0.4579923451
NE -0.9195105433 0.0015355783 -0.4581375122
NE -0.2850046158 0.8743171096 -0.4580486715
NE 0.7412125468 0.5405168533 -0.4579337239
NE 0.7406098843 -0.5383577943 -0.4578504562
NE -0.001591183 0.0012706965 -1.0253335238
NE -0.0018124254 0.0007015027 2.0772359371
NE 0.2879820764 -0.8920255899 1.5199860334
NE -0.7613286972 -0.5507326126 1.5199232101
NE -0.7612232566 0.5528925061 1.5201072693
NE 0.2886927426 0.8936949372 1.520255208
NE 0.9371323586 0.0004284732 1.5202001333
NE 1.2269771099 -0.8922965527 0.9397671819
NE 0.5712096691 -1.7644706964 0.9288345575
NE -0.4715511799 -1.4435149431 0.9394693375
NE -2.2783722878 -1.6525399685 1.4073244333
NE -1.5207802057 0.001484211 0.9396404624
NE -1.5038626194 1.0928943157 0.929479301
NE -0.4707112908 1.4458788633 0.9399753809
NE 0.5727890134 1.7669374943 0.929741323
NE 1.2276457548 0.8934239745 0.9400623441
NE 1.8553709984 0.0001655925 0.9296548963
NE 1.0473525524 -1.4439531565 0.0009162758
NE -0.0022267594 -1.7845470905 0.0008252376
NE -1.051582098 -1.4432632923 0.0007785448
NE -1.7001340389 -0.5503253937 0.0006109524
NE -1.6999870539 0.5532996655 0.0008623761
NE -1.0509662628 1.4461305141 0.0009217939
NE -0.001052949 1.786906004 0.0010570867
NE 1.0486360788 1.4454404116 0.0011481704
NE 1.6970697641 0.552183032 0.0010917347
NE 1.6964912415 -0.5514417887 0.0011998672
NE 0.4673216939 -1.4437015057 -0.9377745986
NE -0.5756498575 -1.7639732361 -0.9271813631
NE -1.2308440208 -0.8913668394 -0.9380005598
NE -1.8586512804 0.0015068552 -0.9277722836
NE -1.2303388119 0.894353807 -0.9380639195
NE -0.5749078989 1.7674353123 -0.9276297092
NE 0.4683810771 1.4456920624 -0.9379054904
NE 1.5013000965 1.0920270681 -0.9274552464
NE 1.5175002813 0.000607471 -0.9377580285
NE 1.4995882511 -1.0905002356 -0.9269823432
NE -0.2918490171 -0.8916378021 -1.5182195902
NE -0.940412581 0.0012428085 -1.5183176994
NE -0.2913859189 0.8940828443 -1.5182569027
NE 0.7583059072 0.5525901914 -1.5181533098
NE 0.7576858997 -0.5510345697 -1.518112421
NE -0.0014678844 0.0009709492 -2.075353384
NE -0.0019541648 0.0002881186 3.1509656906
NE 0.2909614146 -0.9021888971 2.5903987885
NE -0.7697134018 -0.5571864843 2.5903551579
NE -0.7695211768 0.5583968163 2.5905783176
NE 0.2916748822 0.9028992057 2.590741396
NE 0.9470856786 -5.6937e-06 2.5906503201
NE 1.2478458881 -0.9082465768 2.0234665871
NE 0.5819595456 -1.7985980511 2.0073328018
NE -0.479791522 -1.4688913822 2.0231707096
NE -1.5323331356 -1.110906601 2.0072638988
NE -1.5470150709 0.0008723378 2.0233838558
NE -1.5321376324 1.1129541397 2.0078582764
NE -0.4788681865 1.4702863693 2.0237476826
NE 0.5834385157 1.7997351885 2.0081310272
NE 1.2485874891 0.9083480239 2.0238184929
NE 1.8900362253 -0.0002778014 2.0079872608
NE 2.1829633713 -0.9027348161 1.4213027954
NE 1.5309412479 -1.7988717556 1.4209432602
NE 0.8666716218 -2.6754772663 1.4074195623
NE -0.1856927574 -2.3559215069 1.4206938744
NE -1.2393908501 -2.0132038593 1.4206703901
NE -3.0768940449 -2.2325584888 1.9005873203
NE -2.2998285294 -0.5528375506 1.4208773375
NE -2.2998800278 0.5555025339 1.4212061167
NE -2.280772686 1.6573718786 1.4096947908
NE -1.2385030985 2.0156004429 1.4214975834
NE -0.1841045022 2.3578705788 1.4216178656
NE 0.8698508739 2.6800816059 1.4100637436
NE 1.5324962139 1.7994612455 1.4216943979
NE 2.1837046146 0.9023532271 1.421628356
NE 2.8157243729 -0.0005249538 1.4098806381
NE 2.0202367306 -1.4696127176 0.478366375
NE 1.349470973 -2.3563642502 0.472093612
NE 0.2886721492 -2.7005681992 0.4720279276
NE -0.7749228477 -2.3766088486 0.4781268537
NE -1.8255876303 -2.0129494667 0.4720010161
NE -2.481044054 -1.1104952097 0.4719208479
NE -2.501762867 0.0012864325 0.4782713354
NE -2.4809553623 1.1133657694 0.4723426402
NE -1.8249646425 2.0158548355 0.472399801
NE -0.7735524774 2.3788642883 0.4785545766
NE 0.2906091213 2.7025675774 0.4726394713
NE 1.3515554667 2.3574273586 0.4727109373
NE 2.0215671062 1.4695646763 0.4786918163
NE 2.6581599712 0.5574076176 0.4725635946
NE 2.6575803757 -0.558175385 0.472579807
NE 1.8209836483 -2.0140867233 -0.4703802168
NE 0.7700800896 -2.3770544529 -0.4765533209
NE -0.2937275469 -2.7003157139 -0.4704964757
NE -1.3543000221 -2.355414629 -0.4705172777
NE -2.0244827271 -1.468221426 -0.4766747355
NE -2.6612274647 -0.556366086 -0.4707696736
NE -2.6610736847 0.5592172146 -0.4706086218
NE -2.023881197 1.4709564447 -0.4766185284
NE -1.3532860279 2.3583776951 -0.4705226123
NE -0.2921128571 2.7028203011 -0.4704065025
NE 0.7718356848 2.3784182072 -0.4763636291
NE 1.8230088949 2.0147168636 -0.4702559114
NE 2.4784061909 1.1117967367 -0.4703158438
NE 2.4984827042 -0.0002950469 -0.4763889313
NE 2.4770331383 -1.1120635271 -0.4701828063
NE 1.2347867489 -2.0138325691 -1.4190497398
NE 0.1808636636 -2.3558573723 -1.4191176891
NE -0.8717104793 -2.6747231483 -1.4058847427
NE -1.5354038477 -1.7976796627 -1.4192943573
NE -2.1868371964 -0.9011142254 -1.4195373058
NE -2.8190050125 0.0015099358 -1.4079979658
NE -2.1863918304 0.9039739966 -1.4196286201
NE -1.5345935822 1.8006538153 -1.4195783138
NE -0.8713694215 2.6808366776 -1.4078335762
NE 0.1823739409 2.3579344749 -1.4194296598
NE 1.2365473509 2.0149712563 -1.4193538427
NE 2.2785811424 1.6560560465 -1.4075974226
NE 2.2969641685 0.5541759729 -1.4192517996
NE 2.2961843014 -0.5541636944 -1.4190670252
NE 2.2740051746 -1.6538534164 -1.4056569338
NE 0.4755452573 -1.4689426422 -2.0214791298
NE -0.5864223242 -1.7979534864 -2.0056841373
NE -1.2517234087 -0.9071624279 -2.0217020512
NE -1.893316865 0.0012262542 -2.0061047077
NE -1.2512708902 0.9094322324 -2.021818161
NE -0.5855360031 1.8003798723 -2.0060153008
NE 0.4765539169 1.4702348709 -2.021674633
NE 1.5295882225 1.1122082472 -2.0058317184
NE 1.5437347889 0.0001190516 -2.0215015411
NE 1.5283219814 -1.1116520166 -2.0055258274
NE -0.2948352098 -0.9016601443 -2.5886335373
NE -0.9503663778 0.0009541495 -2.588767767
NE -0.2943621576 0.9034280181 -2.5887417793
NE 0.7666073442 0.5582280755 -2.5886235237
NE 0.7660661936 -0.5573549867 -2.5885453224
NE -0.0013265549 0.0006968713 -3.1490833759
NE -3.6400594711 -0.5611467361 -0.9527366757
NE 0.5851531029 -3.6325204372 0.9522717595
NE -0.8864331245 -2.7207314968 -2.5012702942
NE -1.8448015451 -2.7204551697 -1.9090801477
NE 0.8813637495 -2.7216374874 2.5027992725
NE 0.2940975726 0.9104351401 3.6818161011
NE -3.0930171013 1.1220680475 1.9114490747
NE 3.0003602505 1.4857225418 0.9620524645
NE 2.6123747826 2.5936191082 -0.9521591067
NE 2.3163778782 1.6832239628 -2.5010988712
NE 3.1576256752 -0.9112508297 1.9115730524
NE -3.0996937752 0.0013173037 1.9152743816
NE -1.5572452545 -2.9652280807 0.9613776803
NE 0.7729147673 -0.5624200702 -3.6795790195
NE 0.9547721148 -2.9457781315 -1.9133472443
NE 0.5889174938 -1.8208321333 3.0985481739
NE -2.613571167 -2.5921878815 0.9522452354
NE -0.5924429297 1.8219059706 -3.0971288681
NE -0.958506763 0.0007841445 -3.6798081398
NE -0.7763271928 0.5629400611 3.6816287041
NE -0.5933951139 -1.8200412989 -3.0969023705
NE 1.5470538139 -1.1253759861 -3.0967555046
NE 2.5052490234 1.8205623627 1.9160091877
NE -2.3174369335 -1.6811952591 2.502723217
NE -2.6139497757 2.5952134132 0.9543781877
NE -2.0223882198 2.5949568748 1.911729455
NE -1.5613074303 -1.8269256353 -2.5222868919
NE -0.9599888325 -2.9453976154 1.9148467779
NE -2.1415207386 2.9477784634 0.0009605063
NE 1.5481698513 1.1254297495 -3.0969185829
NE 3.4613511562 -1.1262062788 0.0012401983
NE -0.000442741 3.6427717209 0.0011774041
NE 3.1584265232 0.9096084833 1.9119051695
NE -1.2659019232 -0.9178106785 -3.1132190228
NE 2.5037474632 -1.8213845491 1.9153467417
NE -0.1115290821 -3.2841508389 -1.9089155197
NE 2.1375656128 -2.9462912083 0.0008222102
NE 1.6589580774 3.2866814137 0.9547789693
NE 0.1060898006 -3.2844705582 1.9103710651
NE -0.5908208489 -3.6320102215 -0.9508613944
NE 0.2933984101 -0.9104244113 3.6814210415
NE -0.7765654325 -0.5623887181 3.6813883781
NE 0.9569218755 2.9468841553 -1.9136132002
NE -0.9582651258 2.9472651482 1.9158778191
NE -1.5510741472 -1.1247600317 3.0984916687
NE -0.4854403734 -1.4861873388 3.1146085262
NE 2.8621664047 -0.0008729743 2.5033640862
NE -3.4653713703 -1.123929739 0.0004962133
NE -3.1615047455 -0.9089259505 -1.9098085165
NE -1.5554913282 2.9678361416 0.9618839622
NE 0.8841324449 2.7241103649 2.5036010742
NE -2.0215547085 -2.5924446583 1.9103329182
NE 2.0208132267 2.5938756466 -1.9095104933
NE 1.8397322893 -2.721914053 1.9106092453
NE -0.1887090206 2.3958063126 2.5248315334
NE -0.4844485521 1.4867283106 3.1153669357
NE 0.4811825156 -1.4861006737 -3.1129193306
NE 0.7734161615 0.5629084706 -3.6796734333
NE -3.4650762081 1.1268765926 0.0008405865
NE 0.9552257061 -0.0003227105 3.6816906929
NE -2.8654472828 0.0013344019 -2.5014812946
NE 0.5887643099 3.6348350048 0.9547221065
NE -3.6398983002 0.5641820431 -0.9526208043
NE -0.4867393374 3.314763546 0.9619987607
NE -2.3426876068 -2.3941309452 -0.9600715637
NE -2.3185515404 1.6844228506 2.5031995773
NE -0.4885025918 -3.3128149509 0.9613853693
NE 3.6364090443 -0.5636620522 0.9545462728
NE -0.8856222034 2.7250168324 -2.5013651848
NE 1.2543108463 -2.0478954315 -2.52201581
NE 3.6369874477 0.5616664886 0.9545765519
NE 1.2620171309 -0.9190458655 3.1149821281
NE 1.9127335548 -0.0006032329 3.0990614891
NE 0.482144922 1.4868147373 -3.1132917404
NE 3.2734696865 1.682808876 -0.952192843
NE -0.2972777784 -0.9097523093 -3.6796569824
NE -2.3419959545 2.3967401981 -0.9599322081
NE 2.8161475658 -2.0485727787 0.0055769216
NE 0.1098991781 3.2871286869 1.911965251
NE -3.3034286499 0.5629498363 0.9615709782
NE -0.0028366544 -3.6408288479 0.0007046036
NE -3.1611087322 0.9119337201 -1.9099041224
NE -1.2654061317 0.9196104407 -3.1134312153
NE 1.8414851427 2.7238340378 1.9120388031
NE -0.1900422275 -2.3950645924 2.5236542225
NE -2.221583128 -0.9175349474 -2.5226893425
NE -0.5896549225 3.6353459358 -0.9523682594
NE 0.1870032251 2.3960103989 -2.5226385593
NE -1.5507106781 1.1260462999 3.0989470482
NE -2.5082247257 -1.819488883 -1.9137004614
NE -1.2574584484 2.0488526821 2.5246958733
NE -1.842974782 2.7252931595 -1.9098027945
NE 2.1401777267 2.9463708401 0.0013043333
NE -1.0792142153 -3.312558651 0.0054094153
NE -0.1110187247 3.2874491215 -1.9096565247
NE -2.507332325 1.8224585056 -1.9138901234
NE -3.2756433487 1.6848379374 0.9542938471
NE -2.1427822113 -2.9448845387 0.0006775892
NE 3.4625356197 1.1245994568 0.0011880894
NE 1.0737563372 -3.3132655621 -0.0039575165
NE -3.0026636124 1.4878205061 -0.9599768519
NE 2.2185504436 0.9180993438 2.5248169899
NE 0.4830446839 -3.3130092621 -0.9599335194
NE -3.2755250931 -1.6807796955 0.9522045255
NE -3.0031414032 -1.4850953817 -0.959903717
NE -1.2589374781 -2.0473971367 2.523632288
NE 2.8181481361 2.0476765633 0.006318497
NE 1.5568252802 -1.8282780647 2.5239319801
NE 2.3344428539 -0.5625650883 -2.5220582485
NE -3.0925335884 -1.117634654 1.9105499983
NE -1.5648515224 0.0004924317 3.1149094105
NE 2.3348479271 0.5613227487 -2.522403717
NE -1.0773854256 3.315019846 0.0061288546
NE -2.2212274075 0.919886291 -2.5228149891
NE -3.4859483242 0.0013256524 0.0059097698
NE 1.2627291679 0.9183751941 3.1154329777
NE 3.3005175591 0.5609039068 -0.9596156478
NE -2.3380930424 -0.5613569617 2.5238673687
NE 1.0762841702 3.314312458 -0.0038165066
NE 2.3378329277 -2.3957939148 0.9616430402
NE 2.9988839626 -1.4871926308 0.9615933895
NE -1.6600774527 3.2878961563 -0.9524700046
NE 1.5615708828 -0.0001308288 -3.1130270958
NE -3.3034079075 -0.5609382987 0.961653471
NE 1.552015543 -2.9661252499 -0.95988065
NE -2.8200819492 2.0495305061 -0.0041701258
NE -2.3377590179 0.5625309944 2.5243587494
NE 1.2555243969 2.0483541489 -2.5225477219
NE -1.6619311571 -3.2837035656 -0.9508990049
NE 0.5903592706 1.8211150169 3.099247694
NE 2.2176983356 -0.9193215966 2.5244526863
NE 1.5541616678 2.9669384956 -0.9596166611
NE -1.5605583191 1.8287961483 -2.5227813721
NE 0.4856379926 3.3145685196 -0.9596865177
NE 0.1851872206 -2.3948602676 -2.5220830441
NE 1.5584790707 1.8274433613 2.5249011517
NE 3.2997579575 -0.5629837513 -0.9598440528
NE 2.340290308 2.3950765133 0.9621257186
NE 3.4826676846 -0.0009640576 -0.0040272423
NE -1.9160145521 0.0010573851 -3.097178936
NE -0.29678002 0.9111071229 -3.6798155308
NE -2.8207740784 -2.0467197895 -0.0039603901
NE 1.6564919949 -3.284917593 0.9523547888
NE 3.0904734135 1.1202834845 -1.9094212055
NE 3.0964136124 -0.0004706368 -1.913392067
NE 2.6085863113 -2.5937805176 -0.950699687
NE 3.2711391449 -1.6828076839 -0.9505406022
NE 3.0885179043 -1.1194181442 -1.9088131189
NE 2.3130507469 -1.6823921204 -2.5010592937
NE 2.0165698528 -2.5935237408 -1.9087874889
NE 3.072145462 -2.2343325615 -1.8989951611
NE -1.1768610477 -3.6132595539 -1.8992857933
NE 1.1712052822 -3.6142780781 1.9006986618
