37
./arbalign_output/4csv_imatinib_conf43-aligned_to-4csv_imatinib.xyz
C -2.811 -1.006 4.186
C -1.972 -0.077 4.991
C -3.437 -1.771 2.117
C -2.334 -2.873 0.209
N -0.589 -0.276 4.651
C -0.444 -1.637 4.223
C -3.419 -1.939 0.66
C -1.115 -1.806 2.845
C 0.345 0.13 5.655
N 2.285 0.394 0.665
C -3.365 -0.642 -0.085
N -2.374 -1.1 2.771
N -0.788 5.202 1.453
C 2.918 1.674 0.885
C -1.062 3.783 1.27
C -1.531 5.911 0.407
C -1.067 5.386 -0.932
C -0.379 3.264 0.01
C 0.647 2.232 0.325
N 1.027 1.563 -0.908
C -2.484 -0.639 -1.269
C 1.67 0.303 -0.682
C 0.123 4.446 -0.756
C 2.591 -0.33 -2.9
C -0.98 -2.077 -2.664
C -2.387 -1.908 -2.051
C -2.665 -3.143 -1.264
C 1.726 -1.389 -3.478
N -0.724 -0.976 -3.513
C 0.591 0.273 -5.041
C 3.588 1.919 -3.506
N 2.665 -0.111 -1.542
C 2.029 0.717 -5.083
C 0.533 -1.012 -4.258
C 2.384 1.014 -3.621
O -0.974 -3.278 -3.373
C 1.803 2.7 1.131
