37
./arbalign_output/4csv_imatinib_model_6_chainB_pH74-aligned_to-4csv_imatinib.xyz
C -7.96 1.033 8.12
C -9.307 0.321 5.865
C -8.689 1.558 5.896
C -8.004 1.909 7.057
N -9.257 -0.543 6.913
C -8.593 -0.189 8.015
C -8.763 2.46 4.732
C -8.187 3.726 4.71
C -9.508 2.799 2.559
N -8.994 4.041 2.45
C -12.499 4.042 1.351
N -9.422 2.003 3.644
N -10.198 2.293 1.487
C -10.421 2.989 0.313
C -11.532 3.852 0.187
C -11.738 4.497 -1.006
C -10.858 4.323 -2.069
C -9.764 3.47 -1.964
C -9.554 2.819 -0.773
N -8.955 3.317 -3.114
C -7.925 2.426 -3.303
C -7.33 2.323 -4.663
C -7.643 3.211 -5.671
C -7.087 3.079 -6.941
C -6.199 2.041 -7.229
C -5.881 1.141 -6.221
C -6.441 1.277 -4.959
C -5.609 1.886 -8.592
N -4.911 3.063 -9.052
C -4.538 2.9 -10.462
C -1.947 5.625 -10.628
N -2.618 4.407 -10.154
C -3.801 4.147 -10.967
C -2.984 4.554 -8.732
C -3.718 3.314 -8.242
O -7.505 1.74 -2.405
C -8.328 4.514 3.553
