37
./arbalign_output/4csv_imatinib_model_18_chainB_pH74-aligned_to-4csv_imatinib.xyz
C -0.135 -3.824 12.105
C 0.715 -2.962 11.454
C 0.461 -1.597 11.455
C -0.673 -1.161 12.123
N -1.509 -2.016 12.762
C -1.243 -3.318 12.747
C 1.338 -0.632 10.765
C 2.454 -1.013 10.036
C 3.231 -0.017 9.423
N 2.888 1.309 9.517
C 1.79 1.583 10.239
N 1.011 0.677 10.862
N 1.427 2.891 10.382
C 2.146 3.962 9.887
C 3.124 4.593 10.68
C 3.782 5.681 10.175
C 3.507 6.145 8.9
C 2.55 5.54 8.11
C 1.881 4.446 8.605
N 2.311 6.117 6.852
C 1.306 5.813 5.979
C 1.142 6.664 4.771
C 2.012 7.681 4.463
C 1.827 8.47 3.333
C 0.75 8.255 2.482
C -0.14 7.233 2.786
C 0.048 6.451 3.917
C 0.549 9.093 1.268
N 1.722 9.138 0.425
C 1.525 10.093 -0.667
C 2.776 10.146 -1.552
N 3.091 8.823 -2.085
C 4.306 8.883 -2.901
C 3.263 7.853 -0.991
C 2.02 7.812 -0.118
O 0.57 4.881 6.17
C 3.426 4.089 12.081
