37
./arbalign_output/4csv_imatinib_conf25-aligned_to-4csv_imatinib.xyz-noHydrogens.xyz
C 4.134 -0.688 -3.625
C 3.007 -1.693 -3.792
C 3.274 -2.986 -3.058
C 4.561 -2.777 -2.255
N 5.69 -2.497 -3.121
C 5.483 -1.285 -3.868
C 2.196 -3.266 -2.033
C 2.472 -4.541 -1.325
C 1.337 -5.219 -0.669
N 0.034 -4.811 -1.071
C -0.056 -3.446 -1.526
N 0.875 -3.321 -2.627
N -1.421 -3.216 -1.858
C -1.753 -1.901 -2.326
C -3.245 -1.898 -2.575
C -3.914 -0.585 -2.315
C -3.005 0.572 -2.559
C -1.72 0.529 -1.788
C -1.36 -0.851 -1.338
N -1.779 1.362 -0.589
C -0.541 1.357 0.136
C -0.563 2.188 1.401
C -0.868 3.646 1.146
C -0.517 4.385 2.406
C -0.978 3.709 3.686
C -2.013 2.704 3.403
C -1.626 1.718 2.36
C 0.16 3.376 4.578
N -0.063 2.758 5.828
C -0.459 1.415 5.832
C 0.402 0.545 6.749
N 1.789 0.805 6.685
C 2.569 -0.202 5.995
C 2.175 2.136 6.378
C 1.035 3.063 6.722
O 0.575 1.672 -0.634
C -3.419 -2.349 -4.021
