37
./arbalign_output/4csv_imatinib_model_24_chainB_pH74-aligned_to-4csv_imatinib.xyz
C 6.57 5.578 10.587
C 6.475 6.189 9.354
C 5.346 6.932 9.027
C 4.339 7.02 9.98
N 4.435 6.412 11.193
C 5.53 5.706 11.485
C 5.194 7.604 7.717
C 6.178 7.596 6.737
C 5.938 8.281 5.528
N 4.741 8.929 5.304
C 3.842 8.871 6.305
N 4.022 8.246 7.488
N 2.647 9.516 6.134
C 2.297 10.242 5.001
C 2.692 11.592 4.861
C 2.291 12.29 3.746
C 1.526 11.675 2.761
C 1.126 10.351 2.88
C 1.522 9.648 3.998
N 0.312 9.836 1.84
C -0.339 8.625 1.802
C -2.06 7.175 0.68
C -1.272 8.343 0.667
C -1.421 9.201 -0.406
C -2.311 8.919 -1.447
C -3.085 7.755 -1.436
C -2.946 6.885 -0.357
C -4.042 7.444 -2.55
N -3.453 7.572 -3.867
C -1.779 6.713 -5.452
C -3.848 7.625 -6.302
N -2.801 6.627 -6.515
C -2.173 6.822 -7.828
C -4.483 7.457 -4.91
C -2.425 6.548 -4.082
O -0.164 7.797 2.661
C 3.528 12.268 5.94
