37
aligned by ArbAlign
C      -21.919163     2.203308     7.011715
C      -23.303272     4.172859     5.747578
C      -21.922309     4.153346     5.631674
C      -21.232574     3.139429     6.280384
N      -23.975690     3.245929     6.469127
C      -23.290166     2.278883     7.082989
C      -21.235733     5.178078     4.836474
C      -19.857301     5.230185     4.688102
C      -21.422482     7.054588     3.488452
N      -20.099575     7.192178     3.295386
C      -21.529395    10.421934     4.257001
N      -22.016295     6.098379     4.227468
N      -22.251296     7.969988     2.905633
C      -21.810715     9.032949     2.139895
C      -21.452092    10.255601     2.747546
C      -20.986565    11.149903     0.570049
C      -21.239078    10.283445    -4.310447
C      -21.341918     9.957974    -0.040492
C      -21.743175     8.912273     0.750794
N      -21.289403     9.917267    -1.449724
C      -21.737650     8.915395    -2.265604
C      -21.765635     9.150969    -3.734280
C      -21.307746    10.483288    -5.685987
C      -21.909495     9.542967    -6.516349
C      -22.447696     8.397923    -5.943711
C      -22.381474     8.206831    -4.573410
C      -19.303189     6.261612     3.915934
C      -21.990985     9.749813    -7.991802
N      -20.734918    10.113156    -8.576030
C      -20.916772    10.433497    -9.994457
C      -19.573865    10.836380   -10.617524
N      -18.598726     9.763276   -10.459859
C      -17.310363    10.163410   -11.036846
C      -18.425797     9.421220    -9.033261
C      -19.756267     9.034401    -8.422575
O      -22.102149     7.857283    -1.824165
C      -21.056077    11.298083     1.949320
