37
./arbalign_output/4csv_imatinib_conf19-aligned_to-4csv_imatinib.xyz-noHydrogens.xyz
C -0.222 -3.794 3.417
C -0.416 -2.869 4.569
C -1.481 -4.105 2.691
C -0.05 -6.4 0.002
N -1.707 -2.279 4.665
C -0.244 -5.863 1.412
C -1.096 -4.622 1.305
C -2.273 -1.916 3.38
C -3.146 0.729 5.104
N -1.488 -0.926 2.696
C -2.637 0.999 3.676
N -2.39 -3.034 2.489
N -0.343 -4.134 -0.886
C -1.34 0.328 3.428
C -0.242 1.093 2.775
C -1.508 3.139 2.97
C -0.74 2.275 1.989
C -1.014 1.175 -0.154
C -0.359 -3.608 0.487
N -1.591 1.968 0.89
C -2.007 0.941 -1.293
C -2.468 2.212 -1.932
C -1.452 2.705 -2.985
C 3.779 3.419 -3.847
C -0.568 0.408 -3.291
C -1.563 -0.097 -2.265
C 0.497 -5.322 -0.897
C -1.191 1.628 -3.977
N 0.918 2.537 -4.957
C 1.568 2.735 -6.281
C 2.135 4.686 -4.936
N 3.327 3.927 -5.15
C 3.039 2.808 -6.043
C -0.402 2.045 -5.149
C 1.065 3.784 -4.273
O 0.152 1.774 -0.612
C -2.755 2.449 3.448
