37
./arbalign_output/4csv_imatinib_conf6-aligned_to-4csv_imatinib.xyz-noHydrogens.xyz
C -0.712 -2.086 5.87
C 1.915 -3.261 4.974
C -0.317 -2.479 4.463
C 0.842 -3.876 2.878
N -1.578 -2.593 3.764
C 0.572 -3.658 4.359
C -2.185 -1.293 3.627
C -1.17 -0.668 5.767
C 2.562 -2.083 3.069
N 2.194 -1.918 4.462
C 1.413 -2.618 2.256
N -1.896 -0.349 4.591
N -1.955 -0.891 2.264
C -2.62 0.266 1.807
C -1.748 1.488 1.793
C -2.715 2.667 1.951
C -3.947 2.366 1.14
C -3.643 1.504 -0.097
C -3.145 0.145 0.357
N -2.791 2.201 -0.987
C -2.52 1.658 -2.261
C 0.666 1.67 -2.38
C -0.308 2.831 -2.257
C -1.592 2.629 -2.986
C 3.326 0.17 -2.166
C 2.654 -1.433 -3.812
C 4.431 -0.861 -1.848
C 0.812 1.19 -3.778
N 4.962 -1.427 -3.07
C 4.006 -2.156 -3.846
C 0.186 2.246 -4.695
N 2.937 -0.068 -3.506
C 5.708 -0.467 -3.858
C 2.208 0.915 -4.204
C -1.316 2.24 -4.4
O -2.045 0.381 -2.338
C -0.616 1.532 2.745
