37
./arbalign_output/4csv_imatinib_conf46-aligned_to-4csv_imatinib.xyz
C -1.096 -3.279 8.703
C -1.215 -1.789 8.517
C -0.902 -1.375 7.111
C -1.831 -2.084 6.164
N -2.125 -3.436 6.577
C -1.061 -3.998 7.386
C -1.084 0.138 6.969
C -0.17 0.905 7.886
C -0.243 1.777 5.406
N -0.615 2.784 6.373
C -2.617 0.418 3.308
N -0.767 0.485 5.609
N -0.523 2.276 4.094
C -1.484 0.717 2.407
C -0.294 1.409 3.016
C 0.381 2.087 1.828
C 0.875 1.048 0.846
C 0.399 -0.322 1.093
C -0.903 -0.545 1.752
N 0.776 1.58 -0.464
C -0.478 1.66 -1.097
C -0.426 2.309 -2.465
C 0.65 1.673 -3.26
C 0.535 1.95 -4.748
C -1.874 2.097 -4.521
C -0.778 1.318 -5.151
C -1.773 2.339 -3.055
C 1.437 -1.328 -6.852
N 0.016 0.602 -7.369
C 3.744 -1.32 -7.519
C 1.113 1.306 -7.908
N 2.569 -0.566 -7.17
C 2.453 0.685 -7.799
C 0.097 -0.794 -7.249
C -0.965 1.307 -6.647
O -1.008 0.385 -1.277
C -0.501 2.373 7.727
