37
./arbalign_output/4csv_imatinib_model_39_chainB_pH74-aligned_to-4csv_imatinib.xyz
C -1.363 4.043 10.362
C -0.925 4.892 9.369
C -1.838 5.631 8.629
C -3.187 5.472 8.929
N -3.617 4.632 9.909
C -2.719 3.932 10.605
C -1.422 6.552 7.553
C -0.095 6.746 7.185
C 0.193 7.657 6.148
N -0.815 8.327 5.493
C -2.067 8.068 5.918
N -2.407 7.222 6.908
N -3.101 8.725 5.317
C -2.96 9.667 4.313
C -2.823 11.041 4.623
C -2.734 11.946 3.597
C -2.76 11.521 2.277
C -2.893 10.174 1.96
C -2.986 9.263 2.98
N -2.949 9.842 0.592
C -3.255 8.622 0.051
C -3.4 8.545 -1.424
C -3.176 9.635 -2.237
C -3.33 9.541 -3.616
C -3.718 8.344 -4.209
C -3.951 7.242 -3.397
C -3.799 7.341 -2.025
C -3.881 8.243 -5.687
N -2.696 8.668 -6.393
C -2.953 8.723 -7.833
C -1.689 9.182 -8.574
N -0.578 8.277 -8.291
C 0.629 8.733 -8.984
C -0.327 8.203 -6.838
C -1.582 7.754 -6.111
O -3.399 7.637 0.731
C -2.797 11.509 6.068
