37
./arbalign_output/4csv_imatinib_model_40_chainB_pH74-aligned_to-4csv_imatinib.xyz
C 9.459 1.745 9.018
C 9.697 1.896 7.669
C 9.559 3.145 7.07
C 9.172 4.205 7.882
N 8.937 4.051 9.21
C 9.078 2.845 9.763
C 10.204 2.346 4.77
C 9.798 3.36 5.631
C 10.417 2.655 3.414
N 10.202 3.932 2.935
C 9.803 4.846 3.839
N 9.595 4.612 5.154
N 9.605 6.131 3.41
C 9.829 6.565 2.111
C 11.096 7.061 1.73
C 11.269 7.521 0.447
C 10.227 7.484 -0.47
C 8.972 7.003 -0.112
C 8.789 6.542 1.174
N 7.959 7.051 -1.097
C 6.616 6.806 -0.93
C 4.306 6.992 -1.884
C 5.698 7.082 -2.071
C 6.155 7.45 -3.322
C 5.271 7.715 -4.366
C 3.894 7.619 -4.176
C 3.42 7.251 -2.92
C 2.941 7.903 -5.292
N 3.204 7.106 -6.472
C 2.35 7.547 -7.583
C 2.651 6.716 -8.841
N 2.437 5.292 -8.577
C 2.76 4.51 -9.774
C 3.276 4.847 -7.442
C 2.974 5.684 -6.206
O 6.176 6.378 0.11
C 12.239 7.104 2.733
