37
./arbalign_output/4csv_imatinib_conf47-aligned_to-4csv_imatinib.xyz-noHydrogens.xyz
C -0.993 -1.204 5.325
C 0.004 -0.076 5.432
C -2.501 -1.119 3.301
C -2.603 -1.736 1.92
N 1.156 -1.579 3.893
C -1.234 -1.686 3.933
C -0.026 -1.414 3.066
C 1.286 -0.378 4.7
C -3.258 1.004 2.382
N -2.739 2.314 2.151
C -3.751 -1.054 1.193
N -2.378 0.299 3.275
N -3.538 0.356 1.144
C -1.183 1.726 0.292
C -1.453 2.394 1.581
C 0.473 3.806 1.078
C -1.823 4.473 0.367
C -1.72 3.814 -0.981
C -1.844 2.317 -0.911
N -1.199 1.776 -2.089
C 5.173 -2.577 -1.884
C -1.253 0.357 -2.213
C 4.098 -0.513 -1.434
C 6.436 -1.789 -1.643
C 1.651 -1.477 -2.562
C 0.333 -2.223 -2.718
C 2.799 -2.39 -2.286
C -0.569 -1.52 -3.71
N 4.041 -1.725 -2.155
C 1.822 -0.599 -3.764
C 5.282 0.303 -1.915
N 6.42 -0.5 -2.288
C 6.57 -0.601 -3.726
C 0.832 0.56 -3.621
C -0.541 -0.017 -3.523
O -2.589 -0.041 -2.381
C -0.997 3.842 1.434
