37
./arbalign_output/4csv_imatinib_model_5_chainB_pH74-aligned_to-4csv_imatinib.xyz
C 8.1 3.648 11.176
C 8.546 3.481 9.882
C 9.516 3.256 7.066
C 8.569 4.566 9.01
N 7.689 5.948 10.769
C 7.674 4.893 11.59
C 8.131 5.791 9.495
C 9.035 4.444 7.611
C 9.946 3.252 5.724
N 9.876 4.39 4.95
C 9.387 5.491 5.56
N 8.975 5.561 6.844
N 9.317 6.654 4.839
C 8.778 6.768 2.49
C 9.726 6.803 3.521
C 11.087 7.025 3.203
C 11.441 7.208 1.888
C 10.483 7.159 0.881
C 9.14 6.949 1.175
N 8.234 6.959 0.084
C 6.857 6.945 0.144
C 4.686 7.23 -1.094
C 3.939 7.368 -2.264
C 4.569 7.385 -3.507
C 5.963 7.264 -3.543
C 6.704 7.123 -2.365
C 6.089 7.096 -1.129
C 3.769 7.526 -4.771
N 4.146 6.565 -5.791
C 3.494 6.869 -7.075
C 3.934 5.853 -8.148
N 3.611 4.492 -7.729
C 4.067 3.526 -8.745
C 4.234 4.186 -6.424
C 3.794 5.203 -5.374
O 6.272 6.805 1.188
C 12.136 7.083 4.305
