37
./arbalign_output/4csv_imatinib_conf44-aligned_to-4csv_imatinib.xyz
C -2.048 -2.939 2.481
C -2.07 -1.85 3.534
C -1.146 -2.477 1.347
C -3.553 -3.936 0.785
N -3.292 -1.847 -0.506
C -3.476 -3.135 2.04
C -1.38 -3.185 0.055
C 3.078 -2.165 2.549
C 3.282 -0.704 2.106
N 2.478 -2.822 1.447
C 1.254 -2.297 0.941
N 0.202 -2.812 1.787
N -0.303 1.484 2.889
C 1.866 -0.192 1.966
C 0.143 2.559 3.757
C 2.431 2.105 2.855
C 1.792 1.304 1.753
C 0.339 1.718 1.587
C -2.844 -3.194 -0.316
N 1.137 -0.878 0.936
C -2.92 1.103 -0.895
C -1.876 2.107 -1.339
C -0.731 1.479 -2.102
C 0.215 2.599 -2.478
C -2.744 0.642 -3.333
C -3.274 0.137 -1.995
C -2.812 -1.275 -1.73
C -1.278 0.87 -3.347
N 1.316 2.142 -3.279
C 1.823 0.261 -5.534
C 1.932 3.198 -4.049
N 2.833 1.114 -4.976
C 2.637 2.51 -5.209
C 3.236 0.769 -3.643
C 2.256 1.298 -2.617
O -3.249 -2.132 -2.755
C 1.59 2.258 4.083
