37
./arbalign_output/4csv_imatinib_model_0_chainB_pH74-aligned_to-4csv_imatinib.xyz
C -8.891 -0.375 9.815
C -6.894 0.904 9.999
C -7.335 1.719 8.963
C -8.567 1.431 8.394
N -9.333 0.396 8.82
C -7.675 -0.142 10.43
C -6.532 2.847 8.461
C -5.289 3.19 8.983
C -6.345 4.595 6.951
N -6.927 5.288 5.925
C -4.61 4.294 8.439
N -7.055 3.56 7.438
N -5.143 5.008 7.394
C -6.388 6.423 5.358
C -6.67 7.694 5.902
C -6.145 8.804 5.292
C -5.333 8.681 4.171
C -5.049 7.441 3.619
C -5.575 6.323 4.222
N -4.255 7.429 2.451
C -3.974 6.361 1.637
C -3.241 6.62 0.364
C -2.723 7.852 0.037
C -2.055 8.056 -1.169
C -1.887 7.027 -2.088
C -2.409 5.771 -1.777
C -3.079 5.575 -0.571
C 1.044 6.905 -2.544
N 0.137 7.83 -3.234
C 0.701 8.184 -4.542
C 4.296 8.556 -3.476
N 2.986 7.919 -3.663
C 2.086 8.827 -4.367
C -1.175 7.237 -3.39
C 2.416 7.542 -2.357
O -4.306 5.242 1.934
C -7.566 7.825 7.127
