37
./arbalign_output/4csv_imatinib_conf35-aligned_to-4csv_imatinib.xyz-noHydrogens.xyz
C -2.76 -1.13 5.002
C -2.051 -0.379 6.06
C -4.08 -2.378 2.767
C -4.219 -3.576 1.87
N -1.855 -3.754 1.725
C -3.03 -4.47 2.125
C -1.595 -2.556 2.491
C -2.691 -0.567 3.608
C -0.487 0.093 4.298
N 0.588 0.993 4.036
C -2.78 -1.643 2.553
N -0.991 0.47 5.619
N -1.571 0.321 3.405
C 1.378 0.778 2.863
C 3.829 0.729 2.656
C 2.629 2.814 1.977
C 2.022 2.561 0.632
C 0.539 2.195 0.928
C 0.671 0.818 1.558
N -0.056 2.062 -0.347
C -1.458 1.963 -0.471
C -1.966 1.721 -1.893
C -1.53 2.834 -2.763
C -0.459 2.571 -3.751
C 2.602 -1.055 -3.727
C -1.272 0.169 -3.768
C -1.79 0.339 -2.391
C -0.305 1.195 -4.257
N 1.383 -0.594 -4.355
C 1.467 -0.788 -5.763
C 2.882 -0.618 -6.296
N 3.66 -1.732 -5.829
C 3.474 -2.845 -6.742
C 3.236 -2.191 -4.51
C 1.119 0.73 -3.908
O -2.13 1.233 0.459
C 2.622 1.624 2.852
