37
./arbalign_output/4csv_imatinib_model_3_chainB_pH74-aligned_to-4csv_imatinib.xyz
C 3.952 -3.065 12.403
C 4.912 -2.733 11.471
C 5.188 -1.396 11.205
C 4.463 -0.438 11.899
N 3.515 -0.772 12.813
C 3.266 -2.061 13.054
C 6.205 -0.987 10.215
C 6.977 -1.892 9.497
C 7.929 -1.396 8.587
N 8.081 -0.043 8.385
C 7.283 0.754 9.121
N 6.365 0.341 10.017
N 7.417 2.106 8.976
C 8.329 2.72 8.132
C 9.659 2.967 8.554
C 10.517 3.611 7.697
C 10.095 4.0 6.434
C 8.795 3.772 6.012
C 7.928 3.13 6.863
N 8.452 4.252 4.731
C 7.207 4.301 4.17
C 7.058 5.003 2.863
C 8.135 5.462 2.14
C 7.953 6.126 0.93
C 6.684 6.344 0.409
C 5.578 5.889 1.133
C 5.768 5.233 2.345
C 6.479 7.049 -0.89
N 7.343 6.565 -1.933
C 7.205 7.403 -3.13
C 8.144 6.896 -4.233
N 7.85 5.502 -4.553
C 8.777 5.022 -5.585
C 7.956 4.656 -3.349
C 7.027 5.172 -2.261
O 6.252 3.796 4.706
C 10.121 2.546 9.938
