37
./arbalign_output/4csv_imatinib_conf9-aligned_to-4csv_imatinib.xyz
C 0.01 -4.577 3.88
C 0.296 -1.629 4.914
C 1.589 -4.869 2.147
C 0.393 -5.476 1.456
N -0.811 -4.685 1.613
C -1.226 -4.562 2.974
C 1.922 -3.035 3.658
C -0.014 -0.27 5.465
C 2.417 -0.697 4.362
N -0.766 0.853 2.65
C 1.33 -1.685 3.848
N 1.063 -3.999 3.18
N -1.163 1.043 -1.456
C -1.765 1.427 1.773
C -0.468 1.588 3.824
C 1.836 0.662 4.039
C -1.464 2.788 1.271
C -2.229 3.276 0.103
C -2.081 0.415 0.729
N -2.248 0.076 -3.255
C -4.41 2.084 0.157
C -2.325 0.978 -0.637
C -3.1 2.247 -0.578
C -1.466 1.217 -2.872
C -0.342 -0.85 -4.499
C -1.477 -1.093 -3.531
C -0.592 -3.406 0.962
C -0.375 0.616 -4.872
N -0.223 1.351 -3.637
C 0.694 0.978 -5.882
C 2.199 3.251 -5.203
N 1.653 3.155 -6.53
C 0.473 2.339 -6.453
C 2.092 0.759 -5.42
C 2.699 1.939 -4.694
O 0.122 2.803 3.471
C 0.528 0.902 4.739
