37
./arbalign_output/4csv_imatinib_model_11_chainB_pH74-aligned_to-4csv_imatinib.xyz
C 2.833 1.615 12.478
C 3.409 2.156 11.352
C 2.863 3.291 10.772
C 1.735 3.839 11.364
N 1.167 3.302 12.471
C 1.709 2.207 13.011
C 3.438 3.91 9.566
C 4.55 3.401 8.905
C 5.024 4.078 7.768
N 4.391 5.206 7.299
C 3.318 5.616 8.004
N 2.826 5.021 9.103
N 2.672 6.748 7.595
C 3.092 7.543 6.545
C 4.044 8.564 6.756
C 4.405 9.357 5.698
C 3.862 9.15 4.437
C 2.925 8.154 4.214
C 2.554 7.356 5.269
N 2.405 8.05 2.905
C 1.359 7.27 2.492
C 0.882 7.418 1.089
C 1.501 8.231 0.169
C 1.013 8.348 -1.128
C -0.115 7.65 -1.543
C -0.758 6.823 -0.622
C -0.268 6.715 0.676
C -0.646 7.764 -2.932
N 0.368 7.609 -3.948
C -0.209 7.892 -5.267
C 0.866 7.747 -6.354
N 1.441 6.407 -6.327
C 2.479 6.285 -7.357
C 2.007 6.107 -4.996
C 0.938 6.258 -3.921
O 0.835 6.475 3.233
C 4.638 8.794 8.138
