37
./arbalign_output/4csv_imatinib_conf28-aligned_to-4csv_imatinib.xyz
C 1.69 -5.953 3.698
C 1.694 -5.054 2.48
C 0.266 -4.592 2.278
C -0.554 -5.79 1.898
N -0.578 -6.661 3.08
C 0.758 -7.109 3.415
C -1.128 -2.953 0.959
C 0.25 -3.502 1.255
C 1.024 0.935 2.517
N -0.111 2.873 1.572
C 0.705 2.404 2.677
N 0.978 -2.365 1.828
N 2.25 -0.533 0.915
C 3.168 1.527 1.527
C 3.153 2.287 2.838
C -0.786 4.109 1.825
C -1.619 4.61 0.661
C -2.754 3.643 0.489
C 1.87 0.739 1.342
N 0.356 -1.426 -0.298
C 1.397 -1.591 0.669
C -3.349 3.685 -0.893
C 3.435 2.47 0.389
C -0.848 4.867 -0.58
C -2.338 3.445 -1.98
C -2.441 1.98 -2.347
C -0.961 -1.742 0.112
C -1.668 0.194 -3.64
N -1.649 1.635 -3.487
C -0.574 -0.114 -4.641
C -1.545 1.697 -5.942
N -0.912 0.442 -5.897
C -1.201 -0.491 -6.932
C -2.157 2.217 -4.682
C -0.944 3.846 -1.654
O 0.075 5.088 2.298
C 1.94 3.204 2.911
