37
./arbalign_output/4csv_imatinib_model_34_chainB_pH74-aligned_to-4csv_imatinib.xyz
C 2.975 1.575 11.876
C 3.883 1.512 10.842
C 4.362 2.683 10.262
C 3.888 3.888 10.762
N 2.992 3.944 11.782
C 2.544 2.807 12.323
C 5.809 1.496 8.579
C 5.332 2.667 9.151
C 6.742 1.589 7.531
N 7.163 2.812 7.057
C 6.641 3.891 7.667
N 5.754 3.868 8.684
N 7.056 5.125 7.245
C 8.047 5.332 6.292
C 9.405 5.404 6.675
C 10.353 5.653 5.715
C 9.993 5.811 4.383
C 8.668 5.745 3.99
C 7.707 5.5 4.945
N 8.401 5.965 2.621
C 7.175 6.102 2.031
C 7.119 6.488 0.594
C 8.258 6.639 -0.177
C 8.175 7.009 -1.517
C 6.94 7.243 -2.116
C 5.787 7.099 -1.35
C 5.876 6.734 -0.012
C 6.852 7.634 -3.554
N 7.555 6.71 -4.417
C 7.585 7.208 -5.798
C 8.361 6.226 -6.694
N 7.746 4.9 -6.647
C 8.509 3.962 -7.479
C 7.687 4.403 -5.254
C 6.926 5.386 -4.378
O 6.159 5.911 2.649
C 9.808 5.232 8.133
