37
./arbalign_output/4csv_imatinib_model_7_chainB_pH74-aligned_to-4csv_imatinib.xyz
C 5.446 0.191 9.939
C 6.151 0.599 8.835
C 6.194 1.947 8.5
C 5.508 2.832 9.315
N 4.816 2.423 10.401
C 4.786 1.125 10.702
C 6.929 2.436 7.33
C 7.64 1.604 6.476
C 8.322 2.175 5.393
N 8.271 3.526 5.161
C 7.553 4.248 6.039
N 6.89 3.763 7.098
N 7.5 5.6 5.867
C 8.187 6.274 4.881
C 9.518 6.692 5.089
C 10.157 7.389 4.099
C 9.512 7.666 2.906
C 8.2 7.267 2.691
C 7.555 6.57 3.678
N 7.616 7.631 1.469
C 6.297 7.549 1.125
C 5.888 8.13 -0.179
C 6.806 8.633 -1.075
C 6.398 9.177 -2.288
C 5.051 9.232 -2.63
C 4.119 8.731 -1.732
C 4.532 8.192 -0.52
C 4.614 9.81 -3.932
N 5.381 9.306 -5.042
C 5.051 10.038 -6.269
C 5.888 9.505 -7.438
N 5.655 8.081 -7.622
C 6.476 7.577 -8.719
C 5.959 7.341 -6.383
C 5.132 7.88 -5.23
O 5.485 7.02 1.84
C 10.23 6.391 6.398
