37
./arbalign_output/4csv_imatinib_model_32_chainB_pH74-aligned_to-4csv_imatinib.xyz
C -6.191 -5.103 9.405
C -5.579 -3.874 9.397
C -6.281 -2.752 8.985
C -7.598 -2.923 8.596
N -8.2 -4.136 8.601
C -7.504 -5.204 8.994
C -5.671 -1.413 8.956
C -4.355 -1.166 9.317
C -3.881 0.152 9.259
N -4.685 1.179 8.832
C -5.942 0.84 8.494
N -6.46 -0.397 8.544
N -6.786 1.825 8.084
C -6.671 3.982 9.174
C -6.36 5.31 9.091
C -5.817 5.841 7.931
C -5.594 5.048 6.815
C -5.906 3.715 6.888
C -6.448 3.162 8.049
N -5.077 5.685 5.666
C -4.951 5.158 4.411
C -4.178 7.378 3.523
C -3.774 8.194 2.471
C -3.69 7.699 1.172
C -4.022 6.372 0.947
C -4.427 5.563 2.0
C -4.504 6.055 3.31
C -3.256 8.569 0.044
N -1.977 9.193 0.282
C -1.685 10.161 -0.773
C -0.328 10.837 -0.514
N 0.734 9.84 -0.43
C 2.013 10.499 -0.148
C 0.431 8.841 0.613
C -0.915 8.186 0.352
O -5.188 3.998 4.187
C -7.266 3.405 10.448
