37
./arbalign_output/4csv_imatinib_model_41_chainB_pH74-aligned_to-4csv_imatinib.xyz
C 8.03 6.373 6.252
C 7.664 6.607 4.945
C 6.539 7.372 4.659
C 5.815 7.876 5.734
N 6.179 7.643 7.022
C 7.263 6.903 7.269
C 6.1 7.65 3.278
C 6.751 7.153 2.154
C 6.254 7.491 0.882
N 5.13 8.276 0.741
C 4.565 8.707 1.887
N 5.0 8.43 3.132
N 3.463 9.514 1.798
C 1.892 9.268 -0.019
C 2.925 9.979 0.607
C 3.39 11.186 0.033
C 2.809 11.632 -1.128
C 1.317 9.722 -1.188
C -0.481 7.996 -1.432
N 0.248 9.081 -1.86
C -2.521 6.565 -1.739
C -1.671 7.574 -2.231
C 1.79 10.905 -1.739
C -1.999 8.154 -3.443
C -3.962 6.745 -3.672
C -5.177 6.308 -4.429
C -3.644 6.155 -2.451
C -3.126 7.749 -4.158
N -4.908 5.994 -5.813
C -3.761 4.483 -7.382
C -5.886 5.452 -8.01
N -5.022 4.275 -8.122
C -4.738 3.995 -9.538
C -6.17 5.774 -6.532
C -4.049 4.809 -5.923
O -0.174 7.385 -0.437
C 4.499 11.987 0.705
