37
./arbalign_output/4csv_imatinib_conf29-aligned_to-4csv_imatinib.xyz-noHydrogens.xyz
C -1.395 -4.498 1.108
C -1.846 -3.261 1.903
C -3.489 -2.844 0.199
C -2.977 -4.032 -0.538
N -2.51 -5.05 0.369
C -2.007 -6.16 -0.411
C -1.972 -0.553 3.524
C -0.55 -0.319 3.917
C 1.349 0.212 2.334
N 2.165 1.339 2.04
C -2.394 -0.089 2.186
N -2.525 -2.336 1.104
N 1.0 -0.718 -1.942
C -1.953 1.33 1.891
C -0.637 1.727 2.422
C 4.282 2.265 1.245
C 4.287 3.086 0.007
C 3.353 1.082 1.26
C -2.166 -0.991 1.02
N 1.85 1.469 -2.102
C 3.062 0.523 -0.12
C 2.91 1.53 -1.191
C 2.926 2.964 -0.634
C 2.713 3.922 -1.764
C -1.462 1.092 -3.35
C -0.721 -1.316 -3.542
C 0.443 -1.826 -2.709
C -2.904 0.838 -3.718
N -3.675 2.07 -3.743
C -3.392 2.728 -5.001
C -1.124 2.464 -3.927
N 0.813 0.576 -3.976
C -1.9 2.723 -5.206
C -0.526 0.093 -4.002
C 1.586 0.271 -2.813
O 2.112 -0.649 3.156
C 0.163 0.734 3.173
