37
./arbalign_output/4csv_imatinib_model_44_chainB_pH74-aligned_to-4csv_imatinib.xyz
C 0.282 7.03 10.328
C 1.116 7.364 9.281
C 0.667 8.214 8.273
C -0.632 8.694 8.373
N -1.454 8.359 9.406
C -1.003 7.539 10.36
C 1.518 8.6 7.124
C 2.833 8.166 6.971
C 3.564 8.602 5.849
N 2.993 9.419 4.898
C 1.711 9.78 5.12
N 0.965 9.409 6.187
N 1.11 10.61 4.207
C 1.74 11.145 3.087
C 2.47 12.351 3.183
C 3.048 12.871 2.05
C 2.938 12.215 0.826
C 2.218 11.032 0.709
C 1.635 10.507 1.84
N 2.118 10.469 -0.587
C 1.334 9.409 -0.978
C 1.255 9.082 -2.43
C 2.031 9.722 -3.38
C 1.924 9.405 -4.732
C 1.025 8.432 -5.171
C 0.239 7.783 -4.223
C 0.349 8.108 -2.878
C 0.902 8.091 -6.625
N 2.171 7.746 -7.236
C 2.007 7.581 -8.689
C 3.362 7.238 -9.338
N 3.916 6.019 -8.751
C 5.223 5.725 -9.356
C 4.053 6.167 -7.289
C 2.709 6.512 -6.661
O 0.719 8.751 -0.177
C 2.593 13.074 4.519
