37
./arbalign_output/4csv_imatinib_model_23_chainB_pH74-aligned_to-4csv_imatinib.xyz
C -7.895 2.158 9.335
C -7.947 3.282 7.304
C -6.784 3.974 7.603
C -6.179 3.724 8.827
N -8.495 2.385 8.163
C -6.738 2.816 9.698
C -6.228 4.933 6.634
C -5.076 5.671 6.87
C -6.414 5.942 4.549
N -7.13 6.061 3.39
C -4.638 6.574 5.882
N -6.892 5.075 5.463
N -5.313 6.708 4.692
C -6.817 6.958 2.376
C -7.309 8.282 2.415
C -7.005 9.131 1.379
C -6.21 8.709 0.319
C -5.72 7.407 0.261
C -6.026 6.552 1.293
N -4.959 7.051 -0.884
C -4.496 5.799 -1.221
C -3.862 5.604 -2.557
C -3.58 6.657 -3.409
C -2.998 6.441 -4.664
C -2.684 5.151 -5.098
C -2.97 4.084 -4.252
C -3.552 4.306 -3.006
C 0.211 5.295 -5.776
N -0.874 5.722 -6.664
C -0.431 5.624 -8.064
C 3.058 6.983 -7.572
N 1.889 6.11 -7.384
C 0.811 6.507 -8.285
C -2.062 4.916 -6.444
C 1.445 6.165 -5.977
O -4.592 4.868 -0.461
C -8.181 8.746 3.575
