37
./arbalign_output/4csv_imatinib_conf48-aligned_to-4csv_imatinib.xyz-noHydrogens.xyz
C 1.212 1.406 -5.656
C 2.437 0.897 -4.987
C 2.306 0.632 -3.51
C 1.262 1.445 -2.82
N 0.028 1.579 -3.569
C 0.323 2.264 -4.795
C 2.147 -0.853 -3.22
C 0.917 -1.373 -3.905
C 0.634 -2.787 -3.505
N 1.224 -3.118 -2.239
C 1.146 -2.002 -1.357
N 2.17 -1.043 -1.797
N 1.191 -2.231 0.037
C 0.065 -2.766 0.663
C -0.21 -4.203 0.789
C -1.665 -4.335 1.232
C -2.319 -3.059 1.615
C -1.501 -2.14 2.442
C -0.005 -2.265 2.145
N -1.759 -0.723 2.15
C -3.114 -0.328 2.199
C -3.281 1.153 1.82
C -2.523 1.98 2.84
C -2.644 3.461 2.455
C -1.934 3.721 1.173
C -2.128 2.672 0.119
C -2.501 1.316 0.527
C -0.538 4.255 1.27
N 0.417 3.475 1.988
C 1.741 4.049 1.589
C 2.828 3.12 2.11
N 2.732 3.13 3.534
C 2.584 1.835 4.116
C 1.724 4.011 4.029
C 0.368 3.867 3.416
O -3.553 -0.495 3.531
C 0.12 -5.122 -0.319
