37
./arbalign_output/4csv_imatinib_model_15_chainB_pH74-aligned_to-4csv_imatinib.xyz
C -4.573 6.671 7.085
C -3.683 7.113 6.13
C -5.476 7.206 4.573
C -4.126 7.396 4.841
N -6.347 6.769 5.515
C -5.902 6.503 6.745
C -1.855 8.087 3.991
C -3.212 7.866 3.781
C -1.069 8.548 2.918
N -1.618 8.753 1.673
C -2.939 8.502 1.563
N -3.745 8.077 2.557
N -3.53 8.713 0.345
C -2.365 8.283 -1.719
C -2.868 9.185 -0.776
C -2.718 10.573 -0.995
C -2.086 11.0 -2.138
C -1.59 10.084 -3.057
C -1.737 8.718 -2.863
N -1.246 7.869 -3.881
C -1.422 6.514 -3.992
C -0.956 5.838 -5.238
C -0.27 6.494 -6.236
C 0.133 5.824 -7.39
C -0.144 4.475 -7.577
C -0.842 3.793 -6.577
C -1.245 4.47 -5.43
C 2.553 3.359 -8.147
N 1.672 3.961 -9.153
C 1.963 3.389 -10.477
C 5.718 3.368 -10.186
N 4.325 3.077 -9.84
C 3.43 3.644 -10.846
C 0.283 3.747 -8.814
C 4.012 3.614 -8.498
O -1.937 5.874 -3.111
C -3.265 11.575 0.011
