37
./arbalign_output/4csv_imatinib_model_17_chainB_pH74-aligned_to-4csv_imatinib.xyz
C -10.686 -0.911 6.264
C -10.527 -0.115 5.152
C -10.933 -0.572 3.905
C -11.495 -1.84 3.835
N -11.649 -2.625 4.935
C -11.248 -2.166 6.12
C -11.088 0.403 0.383
C -10.783 0.242 2.681
C -10.223 1.516 2.677
N -10.568 1.643 0.283
C -11.558 0.408 -2.005
N -11.216 -0.309 1.523
N -11.555 -0.195 -0.757
C -13.83 1.439 -1.489
C -10.487 0.207 -2.879
C -8.37 -0.27 -4.977
C -10.473 0.764 -4.134
C -12.63 1.76 -3.675
C -12.649 1.209 -2.417
N -9.443 0.578 -5.078
C -11.551 1.552 -4.524
C -7.482 -0.404 -6.163
C -7.651 0.367 -7.298
C -6.813 0.215 -8.401
C -5.776 -0.719 -8.386
C -5.601 -1.503 -7.248
C -6.444 -1.35 -6.156
C -4.872 -0.875 -9.566
N -4.291 0.38 -9.989
C -3.576 0.206 -11.259
C -2.977 1.546 -11.719
N -2.074 2.078 -10.698
C -1.536 3.371 -11.134
C -2.779 2.231 -9.407
C -3.376 0.901 -8.969
O -8.139 -0.887 -3.967
C -10.134 2.212 1.457
