37
./arbalign_output/4csv_imatinib_conf23-aligned_to-4csv_imatinib.xyz-noHydrogens.xyz
C -0.716 -2.244 4.448
C 1.095 -0.957 5.389
C 0.167 -1.074 4.17
C -2.904 -1.992 0.548
N -2.819 -1.118 1.627
C -1.793 -2.482 3.419
C -1.834 -1.182 2.607
C -1.985 -0.101 3.681
C -0.59 0.265 4.135
N -1.618 2.687 2.656
C -0.281 2.434 3.067
N 0.124 1.09 3.222
N 0.703 3.1 2.219
C 0.02 4.155 1.487
C -0.898 4.945 2.404
C 0.974 5.149 0.871
C 0.122 6.135 0.103
C 1.99 4.541 -0.044
C -0.47 -2.402 -0.096
N 1.421 4.205 -1.336
C -1.843 -2.024 -0.489
C 0.25 -3.365 -1.013
C 0.709 6.55 -1.219
C 1.068 5.381 -2.095
C -1.218 -2.45 -2.771
C 0.021 -3.26 -2.457
C -2.258 -2.864 -1.708
C 1.194 -2.947 -3.332
N 1.905 -1.782 -3.167
C 1.605 -0.677 -3.994
C 1.971 0.634 -3.35
N 3.273 0.739 -2.824
C 4.178 1.388 -3.788
C 3.821 -0.482 -2.38
C 2.719 -1.504 -2.06
O -4.114 -1.677 -0.149
C -1.955 4.051 3.021
