37
./arbalign_output/4csv_imatinib_conf39-aligned_to-4csv_imatinib.xyz
C -0.377 -4.212 4.286
C -1.767 -3.324 2.366
C -4.918 -3.397 1.588
C -3.094 -4.764 0.781
N -4.385 -4.685 1.393
C -1.08 -4.494 3.006
C -2.216 -3.575 0.971
C -0.057 -2.057 3.501
C 0.628 0.261 3.029
N 0.099 -0.709 3.91
C -4.326 -2.25 0.872
N -0.629 -2.827 4.636
N -0.972 -2.116 2.382
C 2.09 0.163 2.731
C 0.761 2.764 2.772
C 2.274 2.622 2.495
C -1.282 3.002 1.493
C 2.446 1.31 1.769
C 2.599 -1.123 2.182
N 0.125 2.771 1.498
C -1.78 2.954 0.063
C -1.55 1.56 -0.455
C -1.139 3.975 -0.817
C -0.197 3.272 -1.816
C -1.094 2.467 -2.707
C -1.87 1.42 -1.91
C -2.935 -2.391 0.362
C -0.454 1.853 -3.907
N 0.602 0.933 -3.693
C 0.838 0.187 -4.915
C 3.183 2.787 -5.546
N 2.864 1.394 -5.413
C 1.565 1.057 -5.916
C 3.012 0.97 -4.045
C 1.827 1.451 -3.198
O -2.003 2.053 2.206
C 0.421 1.647 3.684
