37
./arbalign_output/4csv_imatinib_conf45-aligned_to-4csv_imatinib.xyz
C -4.175 0.92 0.728
C -4.221 -0.565 0.992
C -3.089 -0.971 1.95
C -3.375 -0.224 3.23
N -3.448 1.189 3.04
C -3.297 1.647 1.694
C -3.181 -2.452 2.251
C -3.065 -3.285 1.018
C -2.352 -4.589 1.212
N -1.341 -4.621 2.202
C -1.066 -3.448 2.931
N -2.264 -2.771 3.292
N -0.046 -2.583 2.394
C 1.269 -3.186 2.331
C 1.447 -4.232 1.286
C 2.503 -3.837 0.261
C 2.236 -2.414 -0.23
C 2.25 -1.439 0.897
C 2.38 -2.18 2.239
N 3.114 -0.345 0.815
C 2.831 0.81 0.109
C 2.711 0.893 -1.352
C 1.66 0.087 -2.047
C 1.279 0.976 -3.246
C 2.468 1.194 -4.124
C 3.787 0.916 -3.575
C 3.982 0.664 -2.136
C 2.363 2.501 -4.834
N 2.272 3.696 -4.105
C 3.391 4.174 -3.406
C 3.053 5.421 -2.603
N 2.358 6.426 -3.342
C 1.789 7.356 -2.368
C 1.223 5.887 -4.075
C 1.723 4.777 -4.942
O 3.877 1.757 0.438
C 1.938 -5.52 1.907
