37
./arbalign_output/4csv_imatinib_model_28_chainB_pH74-aligned_to-4csv_imatinib.xyz
C -3.553 1.414 9.854
C -1.213 1.729 9.579
C -2.781 3.28 8.706
C -1.457 2.907 8.88
N -3.815 2.541 9.189
C -2.263 0.985 10.07
C 0.98 3.416 8.464
C -0.364 3.74 8.33
C 1.943 4.282 7.914
N 1.572 5.42 7.232
C 0.25 5.652 7.144
N -0.72 4.866 7.664
N -0.158 6.788 6.493
C 0.7 7.739 5.949
C 1.218 8.783 6.75
C 2.037 9.722 6.17
C 2.368 9.644 4.824
C 1.863 8.632 4.02
C 1.04 7.686 4.593
N 2.222 8.665 2.649
C 1.717 7.891 1.633
C 2.119 8.191 0.224
C 3.066 9.146 -0.095
C 3.41 9.411 -1.425
C 2.804 8.72 -2.475
C 1.847 7.758 -2.168
C 1.505 7.502 -0.841
C 3.167 8.998 -3.901
N 4.59 8.968 -4.149
C 4.876 9.414 -5.52
C 6.392 9.41 -5.772
N 6.947 8.079 -5.547
C 8.401 8.1 -5.754
C 6.638 7.606 -4.182
C 5.137 7.625 -3.938
O 0.965 6.981 1.865
C 0.86 8.877 8.225
