37
./arbalign_output/4csv_imatinib_model_35_chainB_pH74-aligned_to-4csv_imatinib.xyz
C -3.523 0.79 9.892
C -5.729 1.668 10.049
C -0.643 1.339 9.385
C -3.044 2.064 9.604
N -5.292 2.898 9.777
C -4.868 0.591 10.115
C -3.97 3.1 9.556
C -1.618 2.329 9.354
C 0.694 1.7 9.145
N 1.036 3.001 8.856
C 0.023 3.89 8.84
N -1.272 3.607 9.076
N 0.317 5.2 8.582
C 1.598 5.687 8.403
C 2.369 6.099 9.512
C 3.623 6.61 9.293
C 4.136 6.704 8.007
C 3.389 6.309 6.904
C 2.128 5.8 7.116
N 3.977 6.484 5.633
C 3.387 6.327 4.403
C 4.171 6.727 3.202
C 5.513 7.043 3.269
C 6.223 7.433 2.132
C 5.594 7.52 0.894
C 4.24 7.205 0.816
C 3.539 6.818 1.953
C 6.345 7.953 -0.328
N 7.55 7.184 -0.564
C 8.378 7.834 -1.59
C 9.665 7.026 -1.823
N 9.343 5.659 -2.221
C 10.578 4.893 -2.407
C 8.489 5.01 -1.202
C 7.223 5.819 -0.971
O 2.269 5.887 4.289
C 1.808 5.996 10.92
