37
./arbalign_output/4csv_imatinib_model_31_chainB_pH74-aligned_to-4csv_imatinib.xyz
C 2.174 -3.634 9.946
C 2.754 -2.675 9.149
C 2.196 -1.405 9.071
C 1.051 -1.156 9.816
N 0.486 -2.105 10.601
C 1.037 -3.319 10.656
C 2.774 -0.34 8.229
C 3.881 -0.533 7.412
C 4.357 0.554 6.655
N 3.727 1.777 6.696
C 2.658 1.867 7.51
N 2.163 0.87 8.269
N 2.017 3.072 7.602
C 2.446 4.225 6.965
C 3.352 5.1 7.606
C 3.731 6.25 6.959
C 3.25 6.545 5.69
C 2.356 5.699 5.048
C 1.965 4.545 5.69
N 1.892 6.107 3.778
C 0.901 5.523 3.033
C 0.478 6.2 1.775
C 1.083 7.352 1.322
C 0.663 7.974 0.148
C -0.385 7.45 -0.602
C -1.006 6.289 -0.156
C -0.585 5.675 1.02
C -0.833 8.115 -1.862
N 0.265 8.419 -2.751
C -0.196 9.258 -3.861
C 0.979 9.593 -4.796
N 1.583 8.362 -5.306
C 2.713 8.692 -6.185
C 2.038 7.504 -4.194
C 0.87 7.185 -3.267
O 0.383 4.49 3.374
C 3.881 4.784 8.996
