37
./arbalign_output/4csv_imatinib_conf17-aligned_to-4csv_imatinib.xyz
C -3.854 2.549 3.411
C -3.431 1.724 2.244
C -4.464 0.677 1.839
C -5.864 1.242 1.856
N -6.14 1.704 3.206
C -5.321 2.892 3.425
C -4.073 0.14 0.5
C -5.027 -0.921 -0.006
C -4.275 -1.993 -0.769
N -3.269 -2.668 0.033
C -2.781 -1.831 1.063
N -2.772 -0.446 0.543
N -1.494 -2.027 1.588
C -1.043 -3.248 2.091
C -0.844 -4.383 1.156
C 0.389 -4.225 0.287
C 1.026 -2.861 0.477
C 1.425 -2.803 1.961
C 0.264 -2.952 2.861
N 2.326 -1.734 2.187
C 1.895 -0.41 1.97
C 3.005 0.649 2.108
C 4.119 0.468 1.147
C 3.96 1.154 -0.185
C 3.316 2.515 -0.055
C 2.014 2.427 0.659
C 2.364 2.029 2.097
C 3.336 3.264 -1.324
N 2.698 2.709 -2.466
C 2.953 3.64 -3.579
C 2.516 3.01 -4.864
N 1.226 2.375 -4.76
C 0.504 2.593 -5.987
C 0.534 2.917 -3.634
C 1.271 2.574 -2.351
O 0.943 -0.081 2.971
C -0.751 -5.669 1.972
