37
./arbalign_output/4csv_imatinib_conf4-aligned_to-4csv_imatinib.xyz-noHydrogens.xyz
C 5.925 -0.232 4.569
C 5.44 -1.256 3.576
C 4.107 -1.863 3.925
C 3.508 -1.097 5.057
N 3.548 0.322 4.843
C 4.907 0.816 4.878
C 3.24 -1.883 2.672
C 1.887 -2.462 2.881
C 0.79 -1.483 3.125
N 1.113 -0.113 2.82
C 2.04 0.022 1.743
N 3.313 -0.6 2.086
N 2.366 1.362 1.456
C 1.374 2.278 1.063
C 2.104 3.608 0.82
C 1.641 4.2 -0.514
C 0.147 4.194 -0.602
C -0.44 2.775 -0.635
C 0.661 1.842 -0.178
N -1.57 2.787 0.199
C -2.447 1.691 0.267
C -3.381 1.428 -0.842
C -4.199 0.179 -0.467
C -3.378 -1.059 -0.57
C -2.585 -1.208 -1.827
C -1.926 0.027 -2.334
C -2.878 1.183 -2.206
C -1.467 -2.219 -1.553
N -0.636 -2.436 -2.692
C -1.243 -3.105 -3.797
C -0.223 -3.108 -4.926
N 0.791 -2.074 -4.691
C 1.648 -2.014 -5.855
C 1.584 -2.429 -3.529
C 0.693 -2.866 -2.375
O -3.268 1.926 1.41
C 1.874 4.562 1.97
