37
./arbalign_output/4csv_imatinib_model_12_chainB_pH74-aligned_to-4csv_imatinib.xyz
C 2.081 7.816 7.455
C 2.177 7.888 6.083
C 1.059 8.209 5.325
C -0.131 8.44 6.0
N -0.222 8.364 7.353
C 0.868 8.055 8.061
C 1.108 8.294 3.852
C 2.263 8.065 3.11
C 2.203 8.18 1.709
N 1.021 8.488 1.071
C -0.044 8.687 1.869
N -0.046 8.605 3.218
N -1.235 9.018 1.281
C -1.878 8.129 -0.866
C -1.429 9.194 -0.078
C -1.212 10.453 -0.679
C -1.459 10.6 -2.024
C -2.124 8.285 -2.211
C -3.112 6.048 -2.692
N -2.619 7.271 -3.059
C -4.366 3.99 -3.373
C -3.743 5.2 -3.74
C -1.898 9.525 -2.786
C -3.776 5.559 -5.069
C -5.0 3.555 -5.659
C -5.664 2.683 -6.673
C -4.982 3.171 -4.315
C -3.643 1.679 -7.455
N -4.839 2.432 -7.828
C -5.603 1.693 -8.841
C -4.726 1.446 -10.076
N -3.521 0.709 -9.709
C -2.678 0.501 -10.891
C -2.764 1.431 -8.67
C -4.393 4.749 -6.016
O -3.035 5.657 -1.554
C -0.735 11.632 0.156
