37
./arbalign_output/4csv_imatinib_model_21_chainB_pH74-aligned_to-4csv_imatinib.xyz
C 0.633 -8.065 10.472
C -0.88 -5.818 10.706
C 0.479 -5.681 10.471
C 1.235 -6.838 10.351
N -1.469 -7.031 10.823
C -0.721 -8.13 10.702
C 1.074 -4.345 10.349
C 2.427 -4.131 10.129
C 0.741 -2.051 10.349
N 2.034 -1.745 10.147
C 0.73 0.259 12.919
N 0.232 -3.293 10.456
N -0.146 -1.021 10.479
C 0.208 0.314 10.426
C 0.636 0.99 11.589
C 0.855 2.995 10.289
C 0.051 5.058 5.847
C 0.43 2.346 9.141
C 0.118 1.013 9.221
N 0.323 3.121 7.967
C -0.217 2.739 6.77
C -0.41 3.769 5.714
C -0.172 6.003 4.85
C -0.866 5.67 3.691
C -1.339 4.372 3.549
C -1.119 3.437 4.547
C 2.893 -2.811 10.042
C -1.113 6.677 2.618
N 0.07 7.387 2.234
C -0.27 8.448 1.282
C 0.995 9.218 0.881
N 1.979 8.311 0.301
C 3.195 9.049 -0.059
C 2.311 7.227 1.248
C 1.057 6.478 1.647
O -0.532 1.598 6.555
C 0.942 2.324 11.502
