37
./arbalign_output/4csv_imatinib_model_42_chainB_pH74-aligned_to-4csv_imatinib.xyz
C -0.048 -1.802 12.284
C 0.796 -1.204 11.373
C 0.6 0.124 11.005
C -0.468 0.8 11.589
N -1.297 0.204 12.487
C -1.088 -1.071 12.821
C 1.475 0.812 10.031
C 2.566 0.202 9.416
C 3.341 0.953 8.509
N 3.018 2.262 8.213
C 1.945 2.766 8.851
N 1.171 2.1 9.736
N 1.601 4.068 8.606
C 2.296 4.922 7.761
C 3.395 5.676 8.236
C 4.031 6.54 7.376
C 3.615 6.66 6.054
C 2.538 5.93 5.57
C 1.89 5.065 6.429
N 2.165 6.154 4.223
C 1.06 5.662 3.569
C 0.779 6.154 2.188
C 1.659 6.966 1.5
C 1.365 7.423 0.213
C 0.17 7.079 -0.415
C -0.729 6.264 0.27
C -0.432 5.813 1.555
C -0.146 7.566 -1.793
N 0.912 7.298 -2.747
C 0.595 7.914 -4.044
C 1.734 7.648 -5.048
N 1.953 6.213 -5.207
C 3.062 5.976 -6.142
C 2.244 5.581 -3.902
C 1.113 5.855 -2.918
O 0.331 4.851 4.085
C 3.851 5.549 9.681
