37
./arbalign_output/4csv_imatinib_model_14_chainB_pH74-aligned_to-4csv_imatinib.xyz
C -1.735 9.002 10.326
C -0.82 9.274 9.341
C -1.207 9.98 8.211
C -2.529 10.388 8.127
N -3.428 10.117 9.101
C -3.034 9.433 10.176
C -0.264 10.292 7.127
C 1.071 9.906 7.146
C 1.89 10.266 6.063
N 1.388 10.96 4.993
C 0.083 11.28 5.061
N -0.752 10.981 6.073
N -0.453 11.991 4.03
C 0.27 12.449 2.946
C 0.944 13.689 3.005
C 1.618 14.127 1.894
C 1.655 13.361 0.74
C 1.0 12.143 0.666
C 0.319 11.698 1.77
N 1.06 11.457 -0.563
C 0.385 10.321 -0.913
C 0.481 9.841 -2.319
C 1.293 10.431 -3.255
C 1.342 9.957 -4.562
C 0.577 8.876 -4.969
C -0.257 8.264 -4.034
C -0.305 8.748 -2.731
C 0.626 8.358 -6.37
N 1.965 8.163 -6.853
C 1.951 7.834 -8.279
C 3.389 7.663 -8.789
N 4.081 6.618 -8.035
C 5.463 6.491 -8.505
C 4.068 6.924 -6.591
C 2.639 7.099 -6.101
O -0.273 9.715 -0.11
C 0.903 14.53 4.27
