37
./arbalign_output/4csv_imatinib_model_10_chainB_pH74-aligned_to-4csv_imatinib.xyz
C 3.872 -1.356 10.146
C 4.694 -0.934 9.125
C 4.777 0.418 8.81
C 4.004 1.3 9.554
N 3.193 0.879 10.559
C 3.128 -0.425 10.842
C 6.44 0.102 6.939
C 5.64 0.923 7.724
C 7.232 0.687 5.935
N 7.203 2.047 5.712
C 6.394 2.758 6.52
N 5.624 2.259 7.504
N 6.352 4.113 6.357
C 7.095 4.81 5.422
C 8.393 5.279 5.73
C 9.078 5.999 4.786
C 8.516 6.25 3.543
C 7.24 5.797 3.228
C 6.548 5.08 4.169
N 6.739 6.129 1.952
C 5.462 5.945 1.492
C 5.125 6.497 0.155
C 6.071 7.113 -0.637
C 5.732 7.633 -1.883
C 4.427 7.545 -2.362
C 3.466 6.929 -1.568
C 3.808 6.415 -0.326
C 4.065 8.096 -3.699
N 4.946 7.625 -4.747
C 4.668 8.346 -5.992
C 5.609 7.851 -7.101
N 5.453 6.415 -7.296
C 6.361 5.95 -8.347
C 5.712 5.685 -6.041
C 4.785 6.183 -4.945
O 4.631 5.351 2.132
C 9.012 5.007 7.093
