50
./arbalign_output/50-2-aligned_to-50-1.xyz
NE -0.9048076657 1.6427471502 -0.0200331511
NE 1.2471680074 1.4901539036 -0.2239075829
NE -0.5146822165 0.810143488 1.5678246096
NE -1.9196817051 0.160622516 -0.7838931625
NE 1.4856875973 0.9738657285 0.7657941032
NE -0.1390164391 -0.062314981 -2.1387274209
NE -1.443380601 -0.8530704643 1.1614118578
NE 1.4386195957 -1.2153388252 -1.0250322288
NE 0.6293336721 -1.702370252 1.0155562931
NE -0.7284119762 -1.7418780211 -0.7715235968
NE -0.2178024897 1.6649543067 0.8850468618
NE 0.1922085096 1.9192306294 -0.1473347894
NE -1.2999804269 1.3809908046 1.0001412812
NE 0.5565509226 1.4662782843 -1.1324314181
NE -1.2168064575 1.0255330678 -0.9216183994
NE -1.6215403872 0.7760267592 0.1084955321
NE 0.5791184419 1.0824866415 1.4476410255
NE -0.3177473654 0.9128985132 -1.6072751137
NE -1.3806739524 0.2651601496 1.0877278134
NE 1.8500289792 0.5209185161 -0.2193051316
NE 1.1808447275 0.1183750674 1.4523366282
NE 0.7320293977 0.4841245129 -1.6830283896
NE -0.5869950184 -0.3149329816 1.6480288891
NE -1.0371564481 0.0495172184 -1.4714709093
NE -1.6929305925 -0.3485289839 0.1902961957
NE 1.5289773959 -0.0983280317 -1.1204410839
NE 0.456766843 -0.742969982 1.5756702149
NE -1.3328735507 -0.7961379571 -0.7831352444
NE -1.0934438399 -1.3064937381 0.1962977565
NE -0.4367628714 -0.9082882839 -1.464244348
NE 1.3582714771 -0.8565099844 0.8962300357
NE 1.7679426905 -0.6114441706 -0.1349253162
NE -0.4099388216 -1.2862428855 1.0960131593
NE 0.6543909405 -0.6432010461 -1.5929070599
NE 1.0411882279 -1.469455155 -0.004300672
NE 0.356939756 -1.4883667402 -0.9039451807
NE -0.0498662259 -1.7338378787 0.1225790317
NE 0.4734221882 1.0004242569 0.3651391989
NE -0.2026966607 0.9780691041 -0.5247016336
NE -0.597039179 0.7265934098 0.4828236244
NE 0.0824426867 0.0985050383 -0.0148014164
NE 0.177596792 0.1604228417 1.0296839008
NE 0.8300764037 0.557033115 -0.5991584231
NE -0.901367116 0.1273567178 -0.3919514584
NE 1.0646434745 0.051808755 0.3699672896
NE -0.0276577024 0.0187400216 -1.0565988277
NE -0.6677829594 -0.3706057311 0.5622588569
NE 0.7470001597 -0.5474229837 -0.5097415725
NE 0.3494388851 -0.7868225363 0.4910418497
NE -0.3172558981 -0.8063631898 -0.3854227791
