20
./arbalign_output/5bvs_EIC_model_23_chainB_pH74-aligned_to-5bvs_EIC.xyz
C 3.031 -2.474 -1.372
C 2.668 -2.341 -2.843
C 2.154 -1.708 -0.442
C 1.088 -2.58 0.159
C 1.56 -3.242 1.426
C 0.498 -4.115 1.961
C 1.054 -5.186 2.841
C 0.124 -6.361 2.821
C 0.741 -7.575 3.435
C 0.656 -8.75 2.749
C 0.416 -8.693 1.275
C -0.294 -9.919 0.782
C -0.367 -10.139 -0.582
C 0.474 -9.312 -1.49
C -0.106 -9.286 -2.882
C 0.18 -7.957 -3.517
C -0.63 -6.867 -2.842
C 0.215 -5.674 -2.459
O 1.796 -1.508 -3.183
O 3.229 -3.05 -3.664
