20
./arbalign_output/5bvs_EIC_conf29-aligned_to-5bvs_EIC.xyz-noHydrogens.xyz
C 2.606 4.508 -2.214
C 2.794 3.111 -1.69
C 2.046 2.77 -0.466
C 0.58 2.846 -0.493
C -0.228 2.081 -1.425
C -0.066 -1.812 2.764
C -2.437 -1.509 3.471
C -2.291 -2.139 4.789
C -2.556 -3.574 4.971
C -3.958 -4.06 4.743
C -1.5 -2.027 2.384
C -4.548 -3.86 3.401
C 0.997 -2.308 1.893
C 1.178 -1.887 0.502
C 0.167 -2.173 -0.529
C 0.692 -1.646 -1.875
C 0.95 -0.155 -1.833
C -0.246 0.629 -1.501
O 1.322 4.842 -2.555
O 3.162 5.467 -1.371
