20
./arbalign_output/5bvs_EIC_model_4_chainB_pH74-aligned_to-5bvs_EIC.xyz
C 2.884 -0.643 1.02
C 3.448 -1.608 0.016
C 2.848 -1.244 2.401
C 4.198 -1.861 4.374
C 4.239 -1.467 2.94
C 5.572 -2.191 4.882
C 5.771 -3.675 4.88
C 7.115 -4.053 5.409
C 7.535 -5.309 5.144
C 6.675 -7.535 4.513
C 6.784 -6.101 4.122
C 5.968 -8.384 3.701
C 4.561 -8.884 1.753
C 5.394 -7.843 2.445
C 3.758 -8.241 0.656
C 2.654 -7.371 1.223
C 2.963 -5.885 1.079
C 2.432 -2.12 -0.988
O 1.226 -1.861 -0.833
O 2.834 -2.803 -1.94
