20
./arbalign_output/5bvs_EIC_model_44_chainB_pH74-aligned_to-5bvs_EIC.xyz
C 3.413 0.071 -0.265
C 3.093 0.118 -1.748
C 2.215 -0.068 0.633
C 3.336 -1.447 2.407
C 2.223 -1.378 1.383
C 3.104 -2.565 3.382
C 4.29 -2.785 4.289
C 5.363 -3.574 3.584
C 6.495 -3.933 4.5
C 7.592 -4.474 3.928
C 7.681 -4.466 2.436
C 8.365 -5.685 1.912
C 8.511 -5.822 0.539
C 8.135 -4.693 -0.35
C 5.209 -5.096 -1.23
C 7.646 -5.194 -1.69
C 6.352 -4.519 -2.045
C 4.126 -4.076 -0.947
O 3.949 0.508 -2.525
O 1.968 -0.261 -2.148
