20
./arbalign_output/5bvs_EIC_model_9_chainB_pH74-aligned_to-5bvs_EIC.xyz
C 2.51 -1.091 1.344
C 2.442 -0.73 -0.133
C 1.374 -0.568 2.175
C 0.591 -1.672 2.837
C 1.406 -2.459 3.837
C 0.548 -3.344 4.687
C 1.359 -4.265 5.562
C 1.802 -5.491 4.805
C 2.383 -6.542 5.704
C 2.937 -7.628 5.12
C 3.132 -7.637 3.634
C 2.943 -9.0 3.054
C 3.115 -9.184 1.693
C 3.721 -8.1 0.878
C 3.164 -8.079 -0.522
C 3.169 -6.681 -1.046
C 2.296 -5.802 -0.182
C 2.505 -4.344 -0.486
O 1.376 -0.327 -0.621
O 3.461 -0.87 -0.824
