20
./arbalign_output/5bvs_EIC_model_47_chainB_pH74-aligned_to-5bvs_EIC.xyz
C -3.695 -1.226 -2.866
C -2.698 -1.259 -4.007
C -3.154 -1.697 -1.557
C -5.273 -2.723 -0.772
C -3.83 -2.956 -1.111
C -5.911 -3.973 -0.345
C -7.388 -3.818 -0.238
C -9.54 -4.846 -0.88
C -8.053 -4.952 -0.924
C -10.211 -5.278 -1.965
C -9.406 -5.491 -3.194
C -10.08 -6.401 -4.162
C -9.49 -6.499 -5.391
C -8.413 -5.534 -5.689
C -5.625 -5.052 -5.988
C -7.72 -5.86 -6.977
C -6.579 -4.908 -7.145
C -4.97 -3.755 -5.621
O -2.977 -0.698 -5.051
O -1.62 -1.874 -3.854
