20
./arbalign_output/5bvs_EIC_conf27-aligned_to-5bvs_EIC.xyz
C -2.087 3.448 -3.14
C -2.547 2.399 -4.117
C 0.219 0.563 -0.822
C -0.144 0.751 0.596
C -0.942 -0.237 1.344
C -0.908 0.125 5.856
C -1.04 0.645 7.297
C -0.356 -1.266 5.866
C -0.188 -1.829 4.483
C -1.507 -1.888 3.791
C -1.406 -2.458 2.393
C -0.484 -1.629 1.495
C 1.451 -0.636 -2.676
C 1.12 -0.522 -1.219
C 0.442 -0.91 -3.679
C -0.669 -0.047 -4.07
C -1.524 2.008 -5.104
C -0.299 1.308 -4.653
O -3.209 3.727 -2.317
O -1.006 3.092 -2.398
