20
./arbalign_output/5bvs_EIC_model_18_chainB_pH74-aligned_to-5bvs_EIC.xyz
C 4.823 0.915 1.556
C 2.936 -0.254 0.332
C 4.206 -0.4 1.118
C 3.186 -0.12 6.546
C 3.707 -0.248 5.133
C 4.161 -0.649 7.573
C 3.508 -1.683 8.437
C 3.204 -2.905 7.608
C 2.177 -3.744 8.273
C 1.553 -4.726 7.54
C 1.847 -4.834 6.083
C 1.012 -5.881 5.424
C 0.539 -5.64 4.182
C 0.654 -4.235 3.68
C 0.479 -4.158 2.189
C 0.418 -2.721 1.752
C 1.749 -2.226 1.296
C 1.739 -0.725 1.112
O 4.233 1.983 1.326
O 5.907 0.889 2.156
