20
./arbalign_output/5bvs_EIC_model_11_chainB_pH74-aligned_to-5bvs_EIC.xyz
C 3.564 0.308 0.828
C 0.758 -1.813 1.346
C 1.345 -0.488 1.754
C 2.838 -0.554 1.845
C 0.94 -2.858 2.412
C 0.158 -4.087 2.098
C 0.472 -5.199 3.06
C 1.597 -6.042 2.532
C 1.863 -7.227 3.401
C 3.03 -7.882 3.201
C 4.066 -7.238 2.339
C 4.71 -8.226 1.425
C 5.658 -7.78 0.531
C 6.105 -6.366 0.608
C 6.707 -5.925 -0.693
C 6.326 -4.502 -0.972
C 4.947 -4.428 -1.588
C 3.94 -3.723 -0.702
O 2.935 0.812 -0.116
O 4.78 0.471 0.959
