20
./arbalign_output/5bvs_EIC_model_24_chainB_pH74-aligned_to-5bvs_EIC.xyz
C 1.509 -1.526 0.86
C 2.497 -2.658 0.846
C 0.094 -2.039 0.97
C -0.164 -2.694 2.306
C -1.619 -3.033 2.472
C -1.874 -3.797 3.751
C -1.35 -5.204 3.628
C -1.677 -6.043 4.828
C -1.244 -7.327 4.798
C -0.552 -9.18 3.309
C -0.347 -7.743 3.671
C 0.273 -9.741 2.342
C 1.874 -9.453 0.483
C 1.445 -8.967 1.848
C 1.981 -8.288 -0.461
C 0.603 -7.724 -0.771
C 0.547 -6.212 -0.63
C 3.351 -2.708 -0.409
O 2.936 -2.191 -1.459
O 4.44 -3.286 -0.357
