20
./arbalign_output/5bvs_EIC_conf9-aligned_to-5bvs_EIC.xyz
C -2.805 -2.438 2.051
C -1.992 -3.643 1.768
C -0.683 -3.43 1.065
C 0.168 -2.519 1.904
C 1.561 -2.289 1.324
C 2.324 -1.402 2.242
C 1.835 -0.029 2.461
C 1.865 0.887 1.249
C 1.35 2.212 1.697
C 1.384 3.346 0.786
C 0.714 3.413 -0.501
C -0.773 3.273 -0.479
C -1.38 3.49 -1.834
C -0.971 2.606 -2.932
C -1.288 1.156 -2.826
C -2.8 0.931 -2.744
C -3.056 -0.541 -2.674
C -2.391 -1.16 -1.468
O -3.998 -2.883 2.695
O -2.201 -1.545 2.968
