20
./arbalign_output/5bvs_EIC_model_2_chainB_pH74-aligned_to-5bvs_EIC.xyz
C 2.443 -2.081 1.355
C 1.187 -2.881 1.134
C 3.65 -2.96 1.497
C 0.72 -3.565 2.397
C -0.704 -4.001 2.289
C -1.03 -5.097 3.268
C -0.925 -6.438 2.601
C -1.329 -7.551 3.517
C -0.916 -8.798 3.202
C -0.041 -10.281 1.438
C 0.131 -8.979 2.147
C 0.929 -10.732 0.561
C 2.89 -10.327 -0.868
C 2.252 -10.056 0.474
C 3.094 -9.042 -1.626
C 1.857 -8.653 -2.411
C 1.307 -7.296 -1.999
C 4.602 -2.942 0.308
O 4.364 -2.221 -0.673
O 5.602 -3.669 0.347
