20
./arbalign_output/5bvs_EIC_model_8_chainB_pH74-aligned_to-5bvs_EIC.xyz
C 3.365 1.321 -1.171
C 2.465 1.615 -2.37
C 2.629 0.844 0.052
C 3.517 0.483 1.224
C 4.456 -0.66 0.946
C 4.794 -1.428 2.192
C 6.465 -2.966 1.094
C 6.185 -1.994 2.207
C 7.82 -3.6 1.21
C 8.342 -4.188 0.112
C 7.673 -3.99 -1.216
C 7.789 -5.19 -2.096
C 7.301 -5.149 -3.398
C 4.078 -3.413 -3.107
C 6.872 -3.866 -4.011
C 5.678 -4.04 -4.917
C 4.556 -3.129 -4.519
C 3.094 -2.383 -2.609
O 2.987 1.967 -3.432
O 1.24 1.495 -2.256
