20
./arbalign_output/5bvs_EIC_model_30_chainB_pH74-aligned_to-5bvs_EIC.xyz
C 4.42 2.285 -0.276
C 3.61 0.178 -1.432
C 4.784 0.978 -0.956
C 6.493 -0.011 5.185
C 4.73 -0.176 3.397
C 5.058 -0.386 4.868
C 7.462 -2.183 4.572
C 7.25 -1.201 5.699
C 7.598 -3.557 5.112
C 7.603 -4.615 4.234
C 7.382 -4.331 2.786
C 7.307 -5.597 1.991
C 6.454 -5.637 0.945
C 5.514 -4.485 0.818
C 4.716 -4.55 -0.449
C 3.671 -3.469 -0.431
C 4.172 -2.211 -1.061
C 3.389 -1.026 -0.561
O 3.216 2.562 -0.079
O 5.31 3.042 0.077
