20
./arbalign_output/5bvs_EIC_model_19_chainB_pH74-aligned_to-5bvs_EIC.xyz
C -1.199 -2.458 1.261
C 2.38 -2.289 0.239
C 0.2 -1.923 1.554
C 1.298 -2.877 1.148
C -1.522 -3.763 1.977
C -3.009 -4.073 1.997
C -3.325 -5.481 2.493
C -2.967 -6.54 1.461
C -3.326 -7.953 1.862
C -2.734 -8.966 1.147
C -1.56 -8.611 0.275
C -1.424 -9.475 -0.946
C -0.279 -9.355 -1.747
C 0.891 -8.551 -1.271
C 1.411 -7.612 -2.345
C 1.173 -6.154 -2.015
C -0.288 -5.75 -2.157
C -0.482 -4.244 -2.115
O 2.137 -1.275 -0.442
O 3.48 -2.859 0.18
