20
./arbalign_output/5bvs_EIC_conf2-aligned_to-5bvs_EIC.xyz
C -1.433 4.594 -2.022
C -0.506 4.755 -3.181
C -1.356 3.253 -1.348
C 0.017 3.027 -0.819
C 0.172 1.703 -0.111
C 2.515 -0.944 3.285
C -0.499 -2.044 3.553
C 1.757 -1.319 4.492
C 0.667 -2.309 4.412
C 0.293 -3.216 1.495
C -0.25 -1.942 2.07
C 0.57 -3.172 0.011
C -0.393 -2.888 -2.275
C -0.637 -2.892 -0.836
C 0.515 -2.049 -3.022
C 0.513 -0.619 -3.187
C 0.751 0.421 -2.178
C -0.121 0.503 -1.009
O -0.767 3.808 -4.159
O -0.724 6.035 -3.725
