20
./arbalign_output/5bvs_EIC_model_46_chainB_pH74-aligned_to-5bvs_EIC.xyz
C -3.487 0.681 -4.655
C -2.316 0.545 -5.629
C -3.22 0.329 -3.21
C -5.044 -1.079 -2.138
C -3.696 -1.068 -2.838
C -7.691 -2.802 -3.022
C -5.503 -2.491 -1.836
C -7.0 -2.647 -1.685
C -8.524 -4.05 -3.14
C -8.498 -4.816 -4.275
C -7.536 -4.514 -5.381
C -7.488 -5.654 -6.36
C -6.743 -5.607 -7.521
C -2.763 -4.181 -4.881
C -3.765 -5.046 -7.002
C -4.548 -4.731 -8.243
C -5.981 -4.389 -7.924
C -3.618 -3.852 -6.092
O -2.503 0.737 -6.823
O -1.182 0.228 -5.197
