20
./arbalign_output/5bvs_EIC_conf12-aligned_to-5bvs_EIC.xyz-noHydrogens.xyz
C -1.426 -2.276 2.738
C -2.124 -2.809 1.509
C -1.674 -2.003 0.279
C -2.373 -2.562 -0.924
C -2.084 -1.978 -2.238
C -2.374 -0.598 -2.583
C -1.797 0.555 -1.895
C -0.296 0.655 -1.855
C 0.327 0.665 -3.215
C 1.792 0.733 -3.286
C 2.577 1.854 -2.817
C 2.598 2.355 -1.444
C 2.982 1.39 -0.351
C 3.051 2.062 0.977
C 1.844 2.728 1.487
C 0.627 1.916 1.729
C -0.439 2.906 2.238
C -1.745 2.254 2.528
O -1.746 -0.942 2.929
O -0.048 -2.346 2.492
