20
./arbalign_output/5bvs_EIC_conf1-aligned_to-5bvs_EIC.xyz-noHydrogens.xyz
C -3.418 4.472 -1.62
C -4.029 3.29 -0.956
C -1.917 2.354 0.073
C -1.133 3.009 2.353
C -2.318 2.766 1.478
C -0.228 1.838 2.537
C -0.953 0.69 3.156
C -0.078 -0.527 3.368
C 1.357 -2.273 2.431
C 1.993 -2.888 1.202
C 0.513 -1.076 2.111
C 4.37 -3.731 -0.417
C 5.082 -4.378 -1.53
C 2.886 -1.948 0.473
C 4.335 -4.958 -2.659
C 3.501 -4.093 -3.513
C 3.534 -2.547 -0.774
C -3.125 2.125 -0.77
O -4.381 5.505 -1.686
O -2.351 4.985 -0.938
