20
./arbalign_output/5bvs_EIC_conf35-aligned_to-5bvs_EIC.xyz-noHydrogens.xyz
C 3.08 4.314 -2.349
C 3.092 3.373 -1.185
C 0.613 3.041 -1.138
C 1.948 2.382 -1.181
C -0.526 2.024 -1.13
C -0.232 -1.767 1.39
C -0.13 -2.555 2.619
C -1.121 -3.415 3.214
C -1.878 -4.487 2.578
C -3.65 -5.268 0.991
C -2.969 -4.055 1.641
C -4.731 -4.748 0.07
C -4.166 -3.856 -1.009
C -0.199 -2.499 0.082
C -0.347 -1.543 -1.075
C -1.617 -0.759 -1.097
C -0.542 1.144 -2.333
C -1.684 0.161 -2.312
O 3.159 3.677 -3.576
O 4.237 5.09 -2.243
