20
./arbalign_output/5bvs_EIC_model_41_chainB_pH74-aligned_to-5bvs_EIC.xyz
C 1.635 -3.112 -0.511
C 2.459 -2.266 -1.455
C 0.625 -2.358 0.295
C -0.753 -2.939 0.161
C -0.851 -4.344 0.675
C -2.271 -4.789 0.774
C -2.401 -6.18 1.328
C -2.03 -7.22 0.311
C -2.291 -8.604 0.8
C -1.804 -9.628 0.072
C -0.866 -9.326 -1.043
C -1.072 -10.236 -2.201
C -0.308 -10.042 -3.323
C 0.789 -9.051 -3.273
C 1.27 -8.687 -4.647
C 1.724 -7.262 -4.652
C 0.541 -6.337 -4.49
C 0.745 -5.269 -3.451
O 2.004 -1.193 -1.876
O 3.566 -2.687 -1.801
