20
./arbalign_output/5bvs_EIC_model_6_chainB_pH74-aligned_to-5bvs_EIC.xyz
C 2.316 3.025 -3.442
C 0.168 -0.629 -5.116
C 2.911 2.036 -2.46
C 2.181 1.962 -1.155
C 1.431 0.667 -1.026
C 2.379 -0.492 -0.85
C 1.632 -1.753 -0.674
C 2.555 -2.93 -0.743
C 1.96 -3.969 -1.641
C 2.93 -5.076 -1.923
C 3.009 -5.517 -3.2
C 2.514 -4.612 -4.28
C 1.988 -5.392 -5.438
C 1.665 -4.724 -6.595
C 2.036 -3.3 -6.743
C 1.243 -2.68 -7.867
C 0.79 -1.307 -7.462
C -0.252 -1.393 -6.36
O 2.901 3.216 -4.513
O 1.263 3.62 -3.158
