20
./arbalign_output/5bvs_EIC_model_36_chainB_pH74-aligned_to-5bvs_EIC.xyz
C 3.068 0.681 -2.246
C 1.852 0.229 -3.046
C 2.754 1.199 -0.867
C 3.482 0.439 0.216
C 4.989 0.507 0.078
C 7.195 0.03 1.167
C 7.642 -1.153 0.348
C 5.692 0.063 1.327
C 9.135 -1.287 0.289
C 9.643 -2.248 -0.513
C 8.699 -3.002 -1.396
C 9.24 -4.33 -1.81
C 8.541 -5.055 -2.743
C 7.381 -4.418 -3.422
C 6.43 -5.426 -3.962
C 5.114 -4.85 -4.363
C 4.878 -3.423 -3.97
C 4.243 -3.296 -2.59
O 0.816 -0.111 -2.446
O 1.929 0.195 -4.279
