20
./arbalign_output/5bvs_EIC_model_27_chainB_pH74-aligned_to-5bvs_EIC.xyz
C -0.261 0.051 -4.732
C 0.943 0.013 -3.803
C 0.791 0.8 -2.529
C 1.087 -0.033 -1.303
C 2.488 -0.597 -1.304
C 2.849 -1.195 0.017
C 4.211 -1.845 -0.002
C 4.122 -3.301 -0.384
C 5.45 -3.992 -0.336
C 5.58 -5.149 -1.037
C 4.517 -5.513 -2.026
C 4.386 -6.992 -2.208
C 3.513 -7.481 -3.17
C 0.088 -5.522 -3.637
C 2.884 -6.525 -4.119
C 1.645 -7.113 -4.749
C 0.615 -6.039 -4.958
C 0.372 -4.052 -3.414
O -0.105 -0.177 -5.922
O -1.392 0.297 -4.25
