20
./arbalign_output/5bvs_EIC_model_3_chainB_pH74-aligned_to-5bvs_EIC.xyz
C -1.313 -0.717 3.706
C -0.083 -1.585 3.721
C -2.506 -1.443 4.255
C 0.406 -1.83 5.125
C 1.811 -2.336 5.125
C 2.217 -2.822 6.493
C 1.88 -4.276 6.64
C 2.294 -4.82 7.97
C 1.663 -5.933 8.384
C 0.255 -7.807 7.66
C 0.422 -6.331 7.663
C -0.855 -8.329 7.042
C -3.016 -8.19 5.886
C -1.863 -7.406 6.454
C -2.677 -8.838 3.498
C -1.565 -8.297 2.629
C -3.254 -7.806 4.444
C -3.607 -1.675 3.236
O -3.381 -1.493 2.032
O -4.708 -2.063 3.634
