20
./arbalign_output/5bvs_EIC_conf45-aligned_to-5bvs_EIC.xyz-noHydrogens.xyz
C 0.98 4.72 -0.613
C 1.317 3.629 -1.565
C 0.784 4.343 0.805
C -1.659 3.807 0.691
C -0.299 3.367 1.106
C -2.784 2.898 0.98
C -2.801 1.542 0.422
C -0.0 -2.87 3.423
C 0.64 -4.126 2.875
C 1.026 -4.0 1.416
C -0.21 -3.713 0.589
C 0.127 -3.579 -0.88
C 1.073 -2.509 -1.224
C 0.831 -1.107 -0.89
C -1.646 -0.901 -0.972
C -0.334 -0.357 -1.416
C -2.773 1.365 -1.043
C -2.816 -0.077 -1.502
O 1.456 4.229 -2.84
O 2.551 3.065 -1.255
