20
./arbalign_output/5bvs_EIC_model_29_chainB_pH74-aligned_to-5bvs_EIC.xyz
C 3.256 0.348 -0.563
C 3.23 -3.012 -2.501
C 3.569 -0.741 0.453
C 2.547 -0.888 1.547
C 2.029 -2.302 1.654
C 3.105 -3.301 1.996
C 2.532 -4.629 2.374
C 3.59 -5.661 2.663
C 5.032 -7.426 1.64
C 5.731 -7.913 0.584
C 4.157 -6.237 1.394
C 5.764 -7.116 -0.681
C 5.906 -7.979 -1.89
C 5.953 -7.379 -3.137
C 6.063 -5.903 -3.225
C 5.422 -5.376 -4.484
C 4.748 -4.068 -4.199
C 3.636 -4.281 -3.195
O 2.084 0.703 -0.739
O 4.184 0.84 -1.21
