20
./arbalign_output/5bvs_EIC_model_40_chainB_pH74-aligned_to-5bvs_EIC.xyz
C 0.271 -2.315 2.842
C 0.061 -2.195 1.366
C 0.257 -0.993 3.581
C -2.57 -2.195 5.386
C -3.827 -2.992 5.578
C -4.001 -3.41 7.021
C -4.971 -4.534 7.118
C -4.483 -5.681 6.273
C -5.565 -6.668 6.069
C -5.374 -7.651 5.133
C -4.119 -7.61 4.325
C -4.104 -8.645 3.252
C -3.647 -8.276 2.035
C -3.615 -6.814 1.756
C -2.438 -6.423 0.927
C -2.46 -4.946 0.71
C -1.154 -4.348 1.048
C -1.225 -2.848 0.942
O -0.212 0.02 3.011
O 0.688 -0.947 4.723
