20
./arbalign_output/5bvs_EIC_conf39-aligned_to-5bvs_EIC.xyz-noHydrogens.xyz
C -1.304 4.289 -0.505
C -2.092 3.767 0.664
C -1.201 3.481 1.856
C -0.136 2.45 1.561
C -0.755 1.125 1.144
C -1.643 0.572 2.239
C -0.932 0.292 3.495
C 0.104 -0.741 3.5
C -0.183 -2.162 3.341
C -0.817 -2.791 2.19
C -0.178 -2.684 0.848
C 1.21 -3.242 0.788
C 1.097 -3.823 -1.643
C 1.845 -3.117 -0.57
C 1.721 -3.716 -3.001
C 1.866 -2.335 -3.525
C -0.413 -2.252 -4.59
C 0.557 -1.597 -3.666
O -2.246 4.51 -1.534
O -0.706 5.508 -0.219
