20
./arbalign_output/5bvs_EIC_model_28_chainB_pH74-aligned_to-5bvs_EIC.xyz
C -2.563 0.46 -3.205
C -3.609 -1.945 -5.652
C -2.936 -0.616 -2.209
C -1.825 -1.033 -1.304
C -1.328 -2.403 -1.637
C -2.343 -3.455 -1.305
C -1.704 -4.792 -1.204
C -2.711 -5.866 -0.923
C -4.273 -7.45 -1.969
C -5.073 -7.813 -2.977
C -3.451 -6.228 -2.168
C -5.257 -6.867 -4.103
C -5.224 -7.567 -5.409
C -5.176 -5.342 -6.378
C -5.163 -6.804 -6.534
C -4.966 -4.668 -7.7
C -4.733 -3.214 -7.468
C -3.465 -3.02 -6.679
O -3.463 1.017 -3.839
O -1.373 0.757 -3.378
