20
./arbalign_output/5bvs_EIC_conf38-aligned_to-5bvs_EIC.xyz
C -1.856 3.331 -0.304
C -0.719 3.526 -2.43
C -2.189 2.579 0.903
C -1.216 2.176 1.909
C -0.075 1.312 1.659
C -0.3 -0.058 1.125
C -1.117 -0.966 1.95
C -0.728 -1.312 3.309
C 0.507 -1.97 3.71
C 0.862 -3.321 3.232
C 2.357 -2.783 1.303
C 1.15 -3.553 1.804
C 2.521 -3.082 -0.169
C 3.7 -2.357 -0.754
C 3.84 -2.672 -2.206
C 2.903 -2.646 -4.479
C 2.645 -2.281 -3.017
C -0.942 2.601 -1.235
O -2.004 3.814 -2.924
O -0.144 4.689 -1.921
