20
./arbalign_output/5bvs_EIC_model_22_chainB_pH74-aligned_to-5bvs_EIC.xyz
C 3.016 1.616 0.848
C 2.658 0.147 0.677
C 1.881 0.668 4.48
C 2.881 0.926 6.755
C 1.655 0.531 5.963
C 3.058 0.03 7.932
C 3.182 -1.4 7.484
C 2.302 -2.275 8.291
C 1.732 -3.402 7.732
C 1.292 -4.984 5.889
C 1.806 -3.628 6.259
C 0.722 -5.164 4.681
C 0.09 -4.274 2.438
C 0.427 -3.941 3.868
C -0.353 -3.049 1.69
C 0.799 -2.199 1.246
C 0.353 -0.821 0.823
C 1.367 -0.121 -0.043
O 2.158 2.487 0.589
O 4.125 1.916 1.251
