20
./arbalign_output/5bvs_EIC_model_14_chainB_pH74-aligned_to-5bvs_EIC.xyz
C -0.643 -2.772 -3.841
C 0.759 -2.765 -4.437
C -0.745 -2.19 -2.462
C -1.153 -3.217 -1.435
C -2.555 -3.724 -1.67
C -3.12 -4.383 -0.444
C -4.413 -5.095 -0.731
C -4.173 -6.353 -1.524
C -5.418 -7.159 -1.705
C -5.348 -8.22 -2.539
C -4.134 -8.382 -3.393
C -3.775 -9.815 -3.576
C -2.714 -10.151 -4.399
C 0.184 -8.104 -3.597
C -0.632 -9.465 -5.502
C -2.067 -9.111 -5.232
C 0.26 -8.336 -5.092
C 0.295 -6.642 -3.239
O 0.902 -2.912 -5.639
O 1.744 -2.624 -3.678
