20
./arbalign_output/5bvs_EIC_model_35_chainB_pH74-aligned_to-5bvs_EIC.xyz
C 4.89 -2.675 -1.473
C 4.567 -2.271 -2.892
C 4.133 -1.933 -0.422
C 3.192 -2.835 0.321
C 3.928 -3.869 1.126
C 3.054 -4.453 2.18
C 3.721 -5.595 2.885
C 3.548 -6.869 2.114
C 4.109 -8.046 2.845
C 4.319 -9.168 2.136
C 4.182 -9.105 0.654
C 3.665 -10.381 0.093
C 3.478 -10.458 -1.264
C 3.943 -9.331 -2.096
C 3.291 -9.343 -3.446
C 3.213 -7.944 -3.953
C 2.296 -7.138 -3.067
C 2.782 -5.73 -2.848
O 5.295 -2.64 -3.792
O 3.549 -1.582 -3.111
