20
./arbalign_output/5bvs_EIC_model_33_chainB_pH74-aligned_to-5bvs_EIC.xyz
C -1.623 2.629 -4.921
C -0.203 2.499 -5.437
C -1.763 2.359 -3.456
C -2.4 1.027 -3.205
C -3.827 1.008 -3.679
C -6.008 -1.005 -4.752
C -5.992 -0.153 -3.517
C -4.601 -0.046 -2.972
C -7.4 -1.274 -5.205
C -7.548 -1.786 -6.439
C -6.357 -1.819 -7.335
C -6.339 -3.056 -8.159
C -5.238 -3.285 -8.934
C -1.524 -2.149 -7.775
C -4.193 -2.246 -8.966
C -2.97 -2.756 -9.668
C -1.799 -1.932 -9.248
C -1.593 -0.855 -6.992
O 0.044 2.868 -6.592
O 0.678 2.021 -4.708
