20
./arbalign_output/5bvs_EIC_conf21-aligned_to-5bvs_EIC.xyz
C -1.305 2.973 -4.194
C -3.104 1.293 -2.241
C -2.472 1.335 -0.933
C -1.932 0.108 -0.309
C 2.38 -0.186 0.852
C 3.343 0.265 1.917
C 3.677 -0.696 2.968
C 2.662 -1.116 3.932
C 1.424 -1.823 3.603
C 2.314 -4.125 3.854
C 1.54 -3.163 2.957
C -0.344 -1.789 -0.189
C 0.793 -2.49 -0.783
C 2.939 -1.336 0.051
C 2.09 -1.873 -1.009
C -0.775 -0.538 -0.988
C -1.192 1.518 -3.895
C -2.439 0.845 -3.463
O -2.209 3.254 -5.217
O -1.648 3.694 -3.055
