20
./arbalign_output/5bvs_EIC_conf41-aligned_to-5bvs_EIC.xyz-noHydrogens.xyz
C -3.42 4.606 -4.262
C -2.785 3.51 -5.041
C -2.052 2.506 -4.208
C -2.89 1.775 -3.197
C -2.058 0.759 -2.414
C 1.808 -1.422 3.095
C 0.344 -0.913 5.056
C 1.567 -0.431 5.804
C 0.785 -2.004 4.075
C 2.258 -2.483 2.116
C 3.26 -1.989 1.126
C 3.687 -3.056 0.172
C 2.571 -3.639 -0.65
C 1.885 -2.585 -1.499
C 0.791 -3.253 -2.283
C 0.018 -2.326 -3.175
C -1.437 -0.289 -3.3
C -0.658 -1.22 -2.388
O -2.392 5.311 -3.594
O -4.365 4.189 -3.356
