20
./arbalign_output/5bvs_EIC_model_34_chainB_pH74-aligned_to-5bvs_EIC.xyz
C 3.528 -0.882 1.578
C 2.67 -1.06 0.357
C 3.348 0.443 2.313
C 3.018 -2.452 4.877
C 4.036 -3.001 5.847
C 3.385 -3.576 7.066
C 4.503 -5.674 6.42
C 4.046 -4.814 7.558
C 4.054 -7.086 6.536
C 4.081 -7.883 5.406
C 4.363 -7.243 4.086
C 4.452 -8.229 2.965
C 4.071 -7.843 1.722
C 3.343 -6.542 1.587
C 3.268 -6.054 0.165
C 2.344 -4.875 0.011
C 2.976 -3.57 0.396
C 2.007 -2.418 0.294
O 2.231 1.008 2.272
O 4.284 0.903 2.942
