20
./arbalign_output/5bvs_EIC_conf37-aligned_to-5bvs_EIC.xyz-noHydrogens.xyz
C 2.013 -2.32 -0.922
C 0.563 -2.409 -1.239
C -0.034 -1.504 -2.218
C -0.054 -0.047 -2.078
C 1.25 0.692 -2.011
C 0.924 2.177 -2.01
C 2.047 3.076 -1.988
C 3.079 3.274 -1.014
C 2.918 3.835 0.321
C 2.169 3.356 1.466
C 0.707 3.178 1.331
C 0.088 2.897 2.718
C -1.387 2.72 2.643
C -1.85 1.511 1.862
C -1.346 0.238 2.54
C -1.804 -0.975 1.796
C -1.335 -2.257 2.467
C 0.15 -2.353 2.587
O 2.829 -2.501 -2.047
O 2.319 -3.51 -0.147
