20
./arbalign_output/5bvs_EIC_conf46-aligned_to-5bvs_EIC.xyz
C 2.03 4.208 -3.964
C 1.319 1.433 -3.528
C 0.641 3.795 -3.607
C 0.664 2.558 -2.765
C -0.692 -1.707 0.838
C -2.482 -1.994 3.302
C -0.405 -1.747 5.489
C -0.065 -1.591 6.963
C -1.383 -2.883 5.373
C -1.813 -3.156 3.956
C -2.87 -2.352 1.915
C -1.725 -2.746 1.025
C -0.034 -2.552 -1.399
C 0.429 -2.178 -0.048
C 0.966 -3.009 -2.363
C 2.125 -2.243 -2.777
C 1.98 -0.925 -3.448
C 1.326 0.152 -2.657
O 1.907 5.376 -4.744
O 2.774 4.516 -2.833
