31
./arbalign_output/6ln3_ATP_conf14-aligned_to-6ln3_ATP.xyz
P 4.262 -2.524 -3.004
O 5.874 -2.19 -3.324
O 3.832 2.52 -3.11
O 4.676 -1.696 -4.405
P 4.95 -0.696 -1.082
O 4.773 -0.895 0.563
O 6.508 -0.183 -1.392
O 2.858 -1.872 -2.387
P 3.799 1.823 -1.565
O 4.097 -2.144 -1.343
O 2.363 1.001 -1.332
O 4.905 0.927 -0.692
O 3.552 3.151 -0.526
C 1.238 1.773 -1.494
C -2.276 1.17 -0.666
O -0.139 0.448 -0.007
C -1.219 1.919 -1.45
O -1.559 1.942 -2.792
C -0.042 0.992 -1.274
O -2.896 0.293 -1.554
C -1.478 0.42 0.341
N -1.601 0.949 1.677
C -0.87 0.157 2.62
N -0.767 0.933 3.838
C -1.463 -1.74 4.149
C -0.174 0.177 4.895
N -0.731 -1.096 5.148
N -2.678 -2.362 4.663
C -2.947 0.921 2.2
N -3.063 -0.22 3.08
C -1.823 -0.972 2.917
