31
./arbalign_output/6ln3_ATP_conf49-aligned_to-6ln3_ATP.xyz
P 2.873 -3.019 2.992
O 1.679 -3.226 1.818
O 3.967 -3.919 2.097
O 2.044 -4.163 3.913
P 2.074 -0.48 3.525
O 0.67 -1.235 4.078
O 0.721 0.562 3.451
O 3.359 -1.379 2.934
P 2.333 0.69 1.099
O 3.921 1.274 1.092
O 1.54 2.146 0.73
O 3.177 -0.225 2.244
O 1.044 0.841 0.004
C 1.372 0.194 -1.19
C 0.283 0.28 -2.216
O -0.851 -0.319 -1.684
C -0.213 1.681 -2.478
O 0.583 2.363 -3.411
C -1.582 1.372 -3.099
O -1.328 1.171 -4.475
C -1.948 0.108 -2.436
N -3.108 0.1 -1.607
C -3.281 -1.251 -1.052
N -2.931 -1.056 0.364
C -3.73 0.139 0.579
C -3.492 0.837 1.865
N -4.107 0.13 2.956
N -4.056 2.179 1.746
C -4.821 2.325 0.504
N -3.979 2.146 -0.662
C -3.12 1.014 -0.525
