31
./arbalign_output/6ln3_ATP_model_45_chainB_pH74-aligned_to-6ln3_ATP.xyz
P 4.705 4.866 -4.092
O 6.532 1.274 -4.699
O 5.8 5.887 -4.134
O 7.762 3.461 -4.616
P 6.617 2.642 -4.051
O 4.265 4.112 -0.156
O 6.635 2.555 -2.573
O 5.232 3.395 -4.478
P 4.678 5.156 -1.133
O 6.122 5.526 -1.156
O 3.532 5.166 -4.97
O 4.141 4.685 -2.596
O 3.766 6.45 -0.832
C 4.1 7.686 -1.375
C 0.7 8.354 -2.662
O 1.963 8.476 -0.668
C 2.041 7.699 -2.861
O 0.69 9.653 -3.258
C 2.835 8.406 -1.772
O 2.542 7.902 -4.17
C 0.629 8.483 -1.153
N -0.129 7.376 -0.574
C 0.343 6.194 -0.086
N -0.674 5.45 0.364
C -1.804 6.158 0.166
C -3.193 5.937 0.421
N -3.626 4.784 1.002
N -4.091 6.89 0.077
C -3.662 8.038 -0.504
N -2.378 8.316 -0.765
C -1.464 7.383 -0.432
