31
./arbalign_output/6ln3_ATP_model_13_chainB_pH74-aligned_to-6ln3_ATP.xyz
P 5.777 6.137 -3.198
O 6.93 6.558 -2.333
O 5.495 9.078 -1.669
O 6.023 6.445 -4.664
P 4.269 8.231 -1.751
O 4.791 5.693 1.199
O 5.378 4.725 -2.988
O 4.468 7.017 -2.787
P 4.851 7.158 0.969
O 6.197 7.785 0.908
O 3.021 8.962 -2.118
O 3.95 7.506 -0.346
O 3.976 7.859 2.13
C 4.013 9.243 2.296
C 0.34 9.616 2.389
O 2.157 9.023 3.772
C 1.604 9.524 1.571
O 1.643 10.496 0.546
C 2.636 9.74 2.66
O 0.02 10.982 2.646
C 0.743 8.939 3.68
N 0.317 7.543 3.703
C 1.039 6.443 3.35
N 0.298 5.344 3.519
C -0.903 5.743 3.983
C -2.108 5.078 4.359
N -2.213 3.725 4.29
N -3.16 5.81 4.788
C -3.058 7.158 4.858
N -1.96 7.846 4.528
C -0.897 7.14 4.099
