31
./arbalign_output/6ln3_ATP_model_7_chainB_pH74-aligned_to-6ln3_ATP.xyz
P 3.517 6.807 -4.598
O 4.911 7.374 -4.367
O 0.015 6.511 -6.999
O 3.238 6.583 -6.066
P -0.61 6.388 -5.643
O -0.623 5.033 -5.026
O 3.273 5.597 -3.764
O 2.497 7.949 -4.04
P 1.155 8.59 -4.665
O 0.055 7.418 -4.562
O 1.369 9.017 -6.091
O -2.146 6.898 -5.694
O 0.711 9.683 -3.744
C -2.495 8.029 -6.44
C -4.336 9.63 -3.65
O -4.608 7.982 -5.327
C -3.529 8.822 -5.673
O -4.931 10.848 -4.114
C -3.02 9.386 -4.352
O -2.262 10.573 -4.488
C -5.17 8.45 -4.109
N -5.168 7.382 -3.107
C -4.341 6.301 -3.03
N -4.668 5.553 -1.97
C -5.716 6.156 -1.365
C -6.517 5.872 -0.216
N -6.289 4.763 0.543
N -7.515 6.721 0.122
C -7.741 7.827 -0.634
N -7.034 8.15 -1.725
C -6.035 7.319 -2.083
