31
./arbalign_output/6ln3_ATP_conf5-aligned_to-6ln3_ATP.xyz
P 1.594 0.842 3.679
O 1.763 1.324 5.306
O 2.884 -0.234 3.642
O 0.171 -0.068 3.829
P 2.817 1.677 1.293
O 2.152 2.336 -0.14
O 3.58 3.006 1.929
O 1.42 1.669 2.232
P 2.756 -0.66 0.034
O 3.968 0.117 -0.811
O 3.431 -2.211 -0.13
O 1.753 0.587 0.643
O 1.112 -0.877 0.185
C 0.705 -2.037 -0.455
C -0.81 -2.236 -0.315
O -1.425 -1.143 -0.892
C -1.163 -3.468 -1.135
O -2.335 -4.024 -0.616
C -1.484 -2.767 -2.471
O -2.275 -3.654 -3.192
C -2.234 -1.598 -1.927
N -2.471 -0.579 -2.871
C -1.264 0.037 -3.359
N -0.863 0.899 -2.261
C -2.116 1.338 -1.642
C -2.239 2.823 -1.654
N -2.97 3.262 -0.476
N -2.771 3.393 -2.854
C -3.848 2.662 -3.441
N -3.66 1.264 -3.539
C -3.173 0.585 -2.368
