31
./arbalign_output/6ln3_ATP_conf29-aligned_to-6ln3_ATP.xyz-noHydrogens.xyz
P 3.268 -1.432 -2.011
O 4.631 -0.691 -1.33
O 1.687 1.431 -4.086
O 3.875 -2.163 -3.402
P 4.305 -0.25 0.276
O 3.988 -1.133 1.658
O 3.004 -2.728 -0.969
O 2.834 -0.385 -3.257
P 1.241 0.141 -3.111
O 5.789 0.504 0.371
O -0.035 -0.694 -3.822
O 3.798 0.803 1.499
O -0.024 0.22 -1.994
C -0.19 1.569 -1.691
C -3.34 1.215 -0.056
O -2.601 1.801 2.159
C -1.302 1.789 -0.691
O -2.517 1.337 -1.143
C -1.074 0.979 0.56
O -0.209 1.623 1.44
C -4.152 -1.009 -0.631
N -2.822 -1.238 -1.091
C -2.545 -2.666 -1.001
N -2.426 -2.949 0.398
C -4.641 -1.849 0.487
C -3.726 -2.877 1.015
N -3.49 -2.75 2.443
N -4.988 -0.926 1.578
C -5.304 0.311 0.893
N -4.44 0.323 -0.237
C -2.473 0.87 1.127
