31
./arbalign_output/6ln3_ATP_conf30-aligned_to-6ln3_ATP.xyz-noHydrogens.xyz
P 3.31 -0.721 -2.054
O 4.672 -1.443 -1.447
O 3.961 0.332 -3.193
O 3.785 -2.044 -2.958
P 4.725 -1.548 0.208
O 4.421 -2.187 1.725
O 4.411 -2.859 -0.84
O 1.698 -0.9 -1.518
P 1.011 0.589 -1.819
O 3.984 -0.579 1.356
O 1.05 0.941 -3.487
O -0.322 -0.437 -1.701
O -0.184 0.937 -0.655
C -0.125 2.287 -0.43
C -1.139 2.787 0.596
O -4.057 0.838 1.002
C -2.544 2.464 0.142
O -3.422 3.325 0.794
C -2.713 1.085 0.741
O -0.999 2.219 1.831
C -1.883 1.189 1.978
N -1.269 -3.102 0.713
C -0.328 -2.478 1.587
N 0.898 -3.202 1.755
C -2.613 -3.016 1.231
C -0.996 -2.182 2.928
N -0.104 -1.374 3.756
N -2.933 -1.63 1.584
C -2.075 -1.134 2.613
N -1.192 -0.059 2.196
C -0.357 0.004 3.407
