31
./arbalign_output/6ln3_ATP_conf15-aligned_to-6ln3_ATP.xyz-noHydrogens.xyz
P 4.948 -0.18 -3.037
O 6.029 -1.485 -2.999
O 2.335 -0.935 -4.885
O 5.877 1.113 -3.592
P 4.666 1.756 -1.086
O 2.327 -1.592 -2.912
O 5.668 0.55 -1.692
O 3.732 0.263 -4.131
P 2.192 -0.013 -3.493
O 5.595 2.678 -0.017
O 4.585 2.773 -2.408
O 3.253 1.017 -0.506
O 0.91 0.399 -2.466
C 0.11 1.358 -3.08
C -3.275 2.243 -1.882
O -3.647 3.352 -1.157
C -2.047 2.609 -2.722
O -1.712 3.954 -2.59
C -1.011 1.687 -2.128
O -1.787 0.57 -1.823
C -2.746 1.197 -0.99
N -4.689 -1.695 -0.131
C -3.392 -1.751 0.515
N -3.079 -3.895 1.524
C -1.312 -1.293 1.79
C -3.408 -2.5 1.827
N -2.32 -1.955 2.617
N -1.809 -0.047 1.22
C -3.177 -0.285 0.857
N -3.618 0.35 -0.331
C -4.516 -0.495 -0.966
