31
./arbalign_output/6ln3_ATP_model_1_chainB_pH74-aligned_to-6ln3_ATP.xyz
P -0.52 7.946 -4.49
O 0.584 8.983 -4.421
O -4.407 6.792 -5.77
O -1.261 8.005 -5.797
P -4.449 6.139 -4.434
O -3.907 4.759 -4.334
O -0.024 6.588 -4.157
O -1.548 8.349 -3.294
P -3.143 8.537 -3.277
O -3.718 7.037 -3.295
O -3.615 9.315 -4.465
O -5.967 6.083 -3.888
O -3.515 9.13 -1.958
C -6.832 7.16 -4.093
C -6.951 7.679 -1.61
O -8.957 8.235 -0.392
C -7.712 7.322 -2.874
O -6.644 9.056 -1.505
C -8.554 6.002 -1.188
O -8.35 6.097 -2.593
C -7.943 7.239 -0.563
N -7.93 4.787 -0.665
C -6.882 4.089 -1.188
N -6.616 3.028 -0.419
C -7.5 3.043 0.602
C -7.745 2.207 1.735
N -6.993 1.095 1.967
N -8.744 2.528 2.592
C -9.495 3.636 2.364
N -9.325 4.458 1.322
C -8.337 4.159 0.453
