31
./arbalign_output/6ln3_ATP_conf7-aligned_to-6ln3_ATP.xyz-noHydrogens.xyz
P 3.06 -2.645 -4.281
O 2.978 -4.235 -3.742
O 1.849 -1.444 -4.377
O 4.537 -1.822 -4.383
P 3.459 -2.049 -1.583
O 1.942 -3.251 0.286
O 4.682 -3.068 -2.142
O 2.725 -3.088 -2.667
P 0.838 -2.406 -0.642
O 4.086 -2.989 -0.301
O 2.023 -2.921 -1.734
O -0.033 -3.812 -0.374
O -0.421 -1.286 -0.798
C -1.087 0.963 -1.027
C -1.358 3.057 -0.025
O -1.896 0.885 0.109
C -0.678 2.384 -1.228
O -1.741 4.342 -0.358
C -2.513 2.105 0.135
O -1.376 2.899 -2.344
C -4.436 1.412 1.267
N -3.38 2.384 1.217
C 0.096 0.005 -0.921
N -4.295 0.686 2.517
C -2.956 0.984 2.983
C -2.922 0.907 4.499
N -2.988 -0.445 4.956
N -4.048 1.72 4.951
C -3.677 3.088 4.667
N -3.489 3.369 3.289
C -2.779 2.391 2.515
