31
./arbalign_output/6ln3_ATP_model_42_chainB_pH74-aligned_to-6ln3_ATP.xyz
P 0.543 1.427 -6.615
O 1.298 0.027 -6.376
O 1.36 2.35 -7.469
O 3.737 0.762 -6.392
P 2.802 -0.284 -5.824
O 2.724 -0.251 -4.34
O 3.133 -1.67 -6.344
O -0.822 1.13 -7.145
P 1.021 3.239 -4.302
O 0.334 2.024 -5.139
O 2.218 3.803 -4.984
O 1.195 2.771 -2.903
O -0.168 4.332 -4.276
C -0.383 5.158 -5.373
C -4.04 4.627 -5.374
O -2.367 5.873 -4.265
C -1.865 5.415 -5.498
O -4.641 5.461 -6.364
C -2.674 4.173 -5.826
O -2.656 3.818 -7.193
C -3.715 5.45 -4.145
N -3.899 4.664 -2.93
C -2.962 3.961 -2.231
N -3.537 3.387 -1.168
C -4.845 3.721 -1.191
C -5.972 3.44 -0.362
N -5.848 2.67 0.756
N -7.184 3.947 -0.691
C -7.311 4.717 -1.799
N -6.299 5.029 -2.616
C -5.081 4.533 -2.31
