31
./arbalign_output/6ln3_ATP_conf36-aligned_to-6ln3_ATP.xyz
P 3.33 1.546 0.973
O 4.075 3.063 0.828
O 4.023 0.88 2.37
O 1.705 1.807 1.325
P 2.427 -0.185 -0.997
O 3.936 -0.285 -1.781
O 1.22 -0.198 -2.197
O 2.821 1.42 -0.623
P 2.897 -2.091 0.895
O 4.371 -2.788 1.399
O 2.117 -1.938 2.402
O 3.619 -0.92 -0.071
O 1.256 -2.356 1.167
C 0.67 -3.073 0.12
C -0.797 -3.25 0.482
O -1.445 -2.052 0.636
C -1.555 -4.095 -0.488
O -2.471 -4.925 0.144
C -2.254 -3.035 -1.325
O -3.537 -3.483 -1.65
C -2.236 -1.811 -0.481
N -1.716 -0.648 -1.149
C -2.477 -0.288 -2.327
N -1.958 1.037 -2.618
C -1.957 1.643 -1.292
C -3.133 2.54 -1.099
N -2.745 3.864 -0.638
N -4.172 1.969 -0.278
C -3.66 1.411 0.947
N -2.731 0.364 0.696
C -1.78 0.543 -0.323
