31
./arbalign_output/6ln3_ATP_model_21_chainB_pH74-aligned_to-6ln3_ATP.xyz
P 1.409 5.77 -5.27
O 4.621 5.202 -4.948
O 2.116 7.032 -5.698
O 4.287 3.086 -6.248
P 3.756 3.975 -5.136
O 2.019 5.641 -1.284
O 3.53 3.212 -3.881
O 2.285 4.463 -5.64
P 1.849 6.58 -2.425
O 1.214 5.733 -3.669
O 0.054 5.579 -5.877
O 3.057 7.361 -2.841
O 0.646 7.589 -2.021
C 0.435 8.76 -2.74
C -3.21 8.226 -3.077
O -1.616 9.046 -1.535
C -1.05 9.031 -2.828
O -3.791 9.343 -3.76
C -1.816 7.964 -3.593
O -1.738 8.1 -5.003
C -2.96 8.59 -1.626
N -3.176 7.434 -0.753
C -2.251 6.549 -0.286
N -2.85 5.635 0.49
C -4.166 5.935 0.518
C -5.317 5.367 1.145
N -5.213 4.263 1.936
N -6.531 5.934 0.945
C -6.639 7.036 0.158
N -5.602 7.623 -0.454
C -4.382 7.076 -0.273
