31
./arbalign_output/6ln3_ATP_conf23-aligned_to-6ln3_ATP.xyz-noHydrogens.xyz
P 0.614 -3.91 -3.087
O 2.041 -4.738 -3.468
O -1.644 -1.404 -5.207
O 0.984 -1.685 -4.961
P 1.86 -3.812 -0.683
O 0.567 -4.291 0.288
O 3.268 -4.594 -0.2
O -0.654 -5.027 -3.139
P -0.432 -1.539 -4.038
O 2.692 -2.603 0.189
O -0.764 -3.192 -3.753
O 0.407 -4.169 -1.43
O -0.075 0.045 -3.568
C 1.153 1.863 -1.728
C -0.11 2.374 0.138
O -0.994 2.197 -0.893
C -0.331 1.885 -2.05
O 1.764 3.071 -1.967
C -0.703 0.44 -2.411
O 2.252 1.981 0.363
C -1.883 2.95 1.63
N -0.743 2.089 1.362
C 1.065 1.549 -0.226
N 0.989 1.16 2.761
C 0.445 -0.125 3.043
C -1.767 0.582 3.287
N -0.87 -0.219 2.439
N -2.062 -0.151 4.481
C -1.128 1.929 3.572
N -2.082 2.937 3.083
C 0.003 2.189 2.564
