31
./arbalign_output/6ln3_ATP_conf22-aligned_to-6ln3_ATP.xyz
P 4.306 0.621 -1.914
O 5.132 -0.794 -1.466
O 2.876 1.367 -2.356
O 5.12 0.483 -3.41
P 5.292 -0.889 0.203
O 5.72 -0.062 1.627
O 6.665 -0.869 -0.798
O 5.667 1.522 -1.433
P 2.237 2.158 -0.994
O 4.348 -2.224 -0.21
O -2.377 0.801 -3.9
O 2.804 1.251 0.315
O 2.856 3.716 -0.832
C -0.117 1.481 -1.782
C -3.69 0.931 -1.913
O -2.149 2.198 -0.712
C -1.567 1.906 -1.916
O -4.433 1.729 -2.807
C -2.332 0.74 -2.506
O 0.62 2.51 -1.194
C -3.407 1.666 -0.638
N -3.694 0.934 0.558
C -1.758 0.179 1.502
N -1.593 -2.186 1.269
C -1.043 -1.036 1.981
C -2.975 -2.428 1.614
N -0.999 -1.214 3.402
N -3.707 -1.161 1.655
C -3.396 1.707 1.742
N -2.435 0.938 2.533
C -2.996 -0.289 0.727
