31
./arbalign_output/6ln3_ATP_model_2_chainB_pH74-aligned_to-6ln3_ATP.xyz
P 4.62 1.871 -7.116
O 3.132 1.597 -7.7
O 2.291 3.699 -8.909
O 4.981 3.309 -7.39
P 1.899 2.584 -7.989
O 4.553 1.538 -5.67
O 5.526 0.915 -7.872
O 0.766 1.743 -8.484
P 1.65 4.588 -5.814
O 1.474 3.146 -6.545
O -1.71 3.433 -8.774
O 2.625 5.464 -6.528
O 1.909 4.33 -4.372
C -1.972 3.914 -7.471
C -1.733 5.406 -7.308
O -2.475 5.782 -6.172
C -0.282 5.769 -7.107
O -4.22 4.272 -8.258
C -3.44 3.851 -7.132
O 0.164 5.21 -5.913
C -3.556 4.878 -6.026
N -3.507 4.242 -4.713
C -2.421 4.04 -3.917
N -2.796 3.432 -2.785
C -4.129 3.243 -2.858
C -5.117 2.667 -2.001
N -4.779 2.152 -0.787
N -6.407 2.634 -2.401
C -6.749 3.147 -3.609
N -5.88 3.708 -4.459
C -4.585 3.753 -4.082
