31
./arbalign_output/6ln3_ATP_conf26-aligned_to-6ln3_ATP.xyz-noHydrogens.xyz
P -0.038 -2.761 -3.567
O 1.432 -3.554 -3.637
O 1.07 0.562 -5.016
O -0.022 -1.458 -4.626
P 1.687 -4.307 -2.147
O 0.371 -5.058 -1.396
O 2.985 -5.363 -2.27
O -1.715 -2.979 -3.826
P 0.003 0.038 -3.836
O 2.711 -2.988 -1.991
O -0.476 1.16 -5.013
O 0.25 -1.996 -2.088
O -0.322 1.097 -2.575
C -1.678 1.23 -2.292
C -0.603 3.864 0.062
O -1.466 4.885 0.383
C -0.88 3.43 -1.382
O -1.496 4.423 -2.114
C -1.76 2.216 -1.137
O -1.03 1.619 -0.092
C -0.838 2.595 0.86
N 0.292 2.389 1.703
C 0.216 1.332 2.642
N -0.446 0.139 2.187
C -0.396 -0.812 3.287
C -1.586 1.053 4.263
N -1.166 -0.325 4.391
N -2.104 1.425 5.587
C -0.371 1.865 3.931
N -0.658 3.235 3.555
C 0.389 3.553 2.572
