31
./arbalign_output/6ln3_ATP_conf17-aligned_to-6ln3_ATP.xyz
P 1.654 1.455 -4.075
O 4.237 -1.362 -2.328
O 3.103 0.659 -4.029
O 4.624 0.785 -3.234
P 3.354 -2.405 -1.303
O 1.949 -3.18 -0.754
O 3.648 -2.998 -2.86
O 2.794 -1.082 -3.657
P 3.321 0.034 -2.504
O 2.398 -1.45 -0.324
O 3.057 2.326 -3.873
O -1.956 -1.902 -2.449
O 0.772 0.824 -2.754
C -1.102 -1.059 -1.76
C -1.48 0.365 -2.047
O -2.355 -1.984 -0.034
C -0.543 0.887 -3.127
O 0.724 2.844 -4.292
C -1.462 0.238 0.189
O -1.363 1.087 -0.889
C -0.8 2.01 1.666
N -0.561 0.641 1.248
C -1.247 -1.156 -0.263
N 0.313 0.141 3.375
C -0.791 -0.085 2.467
C 0.117 -0.59 4.595
N -1.186 -0.485 5.158
N -3.422 0.079 4.902
C -2.053 0.481 4.574
N -1.82 1.967 2.669
C -1.978 0.603 3.088
