31
./arbalign_output/6ln3_ATP_model_14_chainB_pH74-aligned_to-6ln3_ATP.xyz
P 5.185 4.573 -7.038
O 3.828 4.576 -7.918
O 2.911 6.957 -8.198
O 6.239 3.985 -7.958
P 2.54 5.539 -7.891
O 4.921 3.692 -5.875
O 5.5 5.995 -6.658
O 1.535 4.938 -8.815
P 1.919 6.406 -5.107
O 1.942 5.417 -6.402
O -0.966 6.621 -8.683
O 2.064 5.558 -3.899
O 2.878 7.537 -5.254
C -1.42 6.447 -7.356
C -2.9 6.181 -7.298
O -2.243 7.494 -5.447
C -1.347 7.708 -6.51
O -3.589 7.029 -8.224
C 0.027 7.997 -5.964
O 0.403 6.966 -5.107
C -3.244 6.589 -5.881
N -3.294 5.426 -4.993
C -2.3 4.917 -4.212
N -2.753 3.854 -3.542
C -4.043 3.682 -3.893
C -5.068 2.755 -3.542
N -4.837 1.756 -2.648
N -6.29 2.871 -4.108
C -6.525 3.866 -4.997
N -5.616 4.773 -5.366
C -4.391 4.677 -4.816
