31
./arbalign_output/6ln3_ATP_conf2-aligned_to-6ln3_ATP.xyz-noHydrogens.xyz
P 3.327 -1.794 -2.274
O 3.357 -3.358 -1.668
O 2.248 -0.089 -4.965
O 5.028 -1.755 -2.334
P 1.87 -3.8 -1.004
O 1.92 -4.5 0.543
O 2.791 -4.961 -1.856
O 1.875 -0.982 -2.146
P 1.322 -0.289 -3.55
O 0.206 -3.867 -1.279
O 0.726 -1.867 -3.631
O 2.864 -1.197 -0.742
O 0.439 0.758 -2.579
C -0.33 1.632 -3.308
C -0.109 3.3 -1.489
O 0.138 3.346 0.828
C -1.075 2.52 -2.333
O -0.705 4.511 -1.166
C -0.021 2.451 -0.252
O -1.896 1.83 -1.486
C -1.362 1.798 -0.22
N -1.367 0.454 0.31
C -0.972 0.351 1.664
N 0.208 0.987 2.092
C 0.102 1.267 3.512
C -2.118 0.411 3.858
N -0.736 0.357 4.219
N -2.796 1.406 4.675
C -2.222 0.752 2.399
N -3.162 -0.127 1.695
C -2.699 -0.116 0.312
