31
./arbalign_output/6ln3_ATP_conf20-aligned_to-6ln3_ATP.xyz
P 2.998 3.822 -1.567
O 3.766 4.941 -2.574
O 2.524 4.662 -0.165
O 1.713 4.498 -2.442
P 3.432 1.473 -0.231
O 2.35 1.187 -1.506
O 3.619 2.292 1.249
O 3.971 2.445 -1.494
P 2.082 -0.835 0.294
O 2.507 -1.082 1.92
O 2.127 -2.331 -0.496
O 3.456 -0.207 -0.467
O 0.701 0.124 0.179
C -0.017 0.046 1.348
C -1.264 0.89 1.297
O -2.145 0.546 0.302
C -2.088 0.602 2.545
O -3.08 1.563 2.627
C -2.739 -0.72 2.162
O -4.018 -0.719 2.671
C -2.804 -0.599 0.67
N -2.197 -1.714 -0.034
C -2.839 -2.956 0.293
N -2.952 -3.708 -0.961
C -2.151 -2.965 -1.913
C -2.662 -3.012 -3.318
N -2.626 -4.33 -3.9
N -1.893 -2.042 -4.081
C -0.949 -1.317 -3.272
N -1.535 -0.679 -2.121
C -2.445 -1.55 -1.428
