31
./arbalign_output/6ln3_ATP_model_36_chainB_pH74-aligned_to-6ln3_ATP.xyz
P -3.752 3.062 -9.295
O -3.541 4.291 -8.239
O -4.74 3.52 -10.353
O -2.373 2.817 -9.884
P -6.74 3.536 -6.227
O -6.533 2.211 -5.585
O -4.232 1.897 -8.516
O -3.874 6.264 -6.736
P -4.626 5.212 -7.479
O -5.276 4.229 -6.386
O -5.675 5.726 -8.424
O -7.511 3.559 -7.504
O -7.447 4.477 -5.125
C -8.072 5.661 -5.504
C -7.878 6.683 -4.414
O -8.339 6.157 -3.191
C -6.425 7.052 -4.167
O -5.909 7.995 -5.088
C -6.536 7.624 -2.778
O -7.037 8.964 -2.836
C -7.571 6.721 -2.142
N -6.925 5.668 -1.358
C -6.611 4.4 -1.743
N -6.039 3.747 -0.727
C -5.983 4.599 0.316
C -5.504 4.521 1.659
N -4.948 3.377 2.142
N -5.602 5.604 2.462
C -6.156 6.744 1.984
N -6.631 6.887 0.74
C -6.543 5.822 -0.082
