31
./arbalign_output/6ln3_ATP_conf28-aligned_to-6ln3_ATP.xyz-noHydrogens.xyz
P -0.376 -0.702 -3.623
O 1.067 -1.529 -3.663
O -0.282 0.904 -3.09
O 0.426 -0.406 -5.084
P 2.085 -1.134 -2.395
O 2.209 -2.795 -2.221
O 3.59 -0.383 -2.566
O 1.81 0.426 -1.773
P -2.824 -0.432 -2.513
O -1.574 -1.565 -2.787
O -4.215 -0.572 -3.499
O -3.061 -1.374 -1.146
O -2.54 1.144 -1.968
C -2.562 1.126 -0.574
C -2.312 2.527 -0.0
O -2.35 2.425 1.362
C -0.895 2.931 -0.345
O -0.913 3.692 -1.536
C -0.524 3.779 0.841
O -0.841 5.104 0.462
C -1.408 3.271 1.924
N 1.09 1.596 2.075
C 1.751 0.314 2.27
N 0.855 -0.814 2.148
C -0.898 0.492 3.041
C -0.15 -0.776 3.208
N 0.379 -1.039 4.496
N -1.717 0.901 4.158
C -1.845 2.341 4.007
N -0.788 2.781 3.094
C 0.053 1.659 3.033
