31
./arbalign_output/6ln3_ATP_conf47-aligned_to-6ln3_ATP.xyz
P -1.418 -2.39 -1.869
O 1.091 -3.168 -2.407
O 3.501 -0.425 -1.972
O 2.592 -1.667 -1.757
P 1.155 -2.204 -1.023
O 1.604 -3.454 0.057
O 4.551 -0.277 0.463
O -0.421 -1.809 -0.649
P 3.682 -1.35 -0.543
O 2.976 -1.011 0.958
O -1.267 -0.732 -1.611
O -1.614 -2.826 -0.229
O -2.871 -1.568 -2.046
C -0.846 -0.066 -2.744
C -2.088 1.954 -1.971
O -2.752 2.815 0.174
C -0.741 1.429 -2.42
O -2.227 3.285 -2.354
C -0.434 2.456 -0.457
O 0.154 1.657 -1.411
C -1.87 1.973 -0.47
N 0.202 2.384 0.819
C 1.57 2.858 0.72
N 1.864 3.494 1.99
C 0.619 3.976 2.516
C -0.639 1.758 3.525
N -0.073 2.642 4.488
N -0.274 4.986 4.51
C 0.494 3.848 4.0
N -1.36 2.526 2.531
C -0.462 3.324 1.729
