31
./arbalign_output/6ln3_ATP_conf35-aligned_to-6ln3_ATP.xyz
P 5.318 -1.246 -0.067
O 6.478 -5.29 -0.55
O 3.953 -0.201 -2.285
O 6.144 -0.332 -1.246
P 5.875 -3.892 0.173
O 6.103 -3.294 1.717
O 5.242 -5.411 0.556
O 5.42 -2.677 -0.923
P 3.263 0.346 -0.86
O 6.41 -1.21 1.195
O 1.777 0.895 -0.356
O 3.622 -1.037 0.035
O 3.516 0.61 0.786
C 0.839 1.075 -1.345
C -2.754 1.759 -1.142
O -1.029 0.839 0.113
C -1.457 1.775 -1.943
O -1.331 3.021 -2.582
C -0.442 1.66 -0.845
O -3.171 3.065 -0.923
C -2.35 1.19 0.202
N -3.242 0.066 0.458
C -2.949 -0.593 1.687
N -2.346 -1.895 1.466
C -2.935 -2.85 2.364
C -5.028 -1.849 2.39
N -4.325 -3.012 1.925
N -6.218 -1.665 1.563
C -4.199 -0.608 2.483
N -4.979 0.485 1.923
C -4.625 0.493 0.497
