31
./arbalign_output/6ln3_ATP_conf44-aligned_to-6ln3_ATP.xyz
P -2.848 -1.557 -4.36
O -2.271 -3.055 -3.889
O -2.309 -1.271 -5.948
O 0.778 -3.477 -4.456
P -1.792 -2.403 -1.308
O -0.855 -3.082 -0.07
O 0.344 -3.554 -2.493
O -4.385 -2.257 -4.572
P -0.618 -2.926 -3.701
O -1.841 -3.4 -2.668
O -3.452 0.032 -4.165
O -3.441 -2.748 -1.273
O -1.732 -0.741 -1.291
C -0.577 -0.177 -1.768
C -0.755 1.343 -1.647
O -0.952 1.612 -0.314
C 0.569 1.945 -2.072
O 0.4 3.254 -2.536
C 1.299 1.916 -0.74
O 2.332 2.848 -0.702
C 0.169 2.258 0.171
N 0.421 2.014 1.559
C 0.719 0.682 1.931
N -0.359 0.138 2.719
C -0.865 1.306 3.415
C 0.054 1.767 4.507
N 1.09 2.666 4.023
N -0.68 2.466 5.519
C 0.58 3.856 3.412
N -0.752 3.658 2.859
C -0.802 2.334 2.288
