31
./arbalign_output/6ln3_ATP_conf45-aligned_to-6ln3_ATP.xyz
P -0.665 -1.122 -4.158
O 2.589 -3.386 -3.909
O 1.388 1.187 -4.251
O 1.121 -3.04 -6.015
P 0.955 -3.382 -4.383
O 0.329 -2.211 -3.355
O 0.264 -4.919 -4.523
O 0.89 -0.534 -4.308
P 1.385 0.215 -2.878
O 2.841 0.479 -2.133
O -2.223 -0.736 -3.613
O -1.537 -2.532 -3.845
O 0.259 1.213 -2.131
C 0.896 1.861 -1.104
C 0.717 3.295 0.837
O -1.092 3.775 2.283
C -0.086 2.695 -0.268
O 0.65 4.676 0.796
C -0.179 -0.754 1.028
O -1.063 1.879 0.286
C -0.628 1.535 1.56
N 0.959 -1.564 0.67
C 1.116 -2.775 1.392
N -0.069 -3.524 1.611
C -0.898 -1.302 2.255
C -1.205 -2.756 2.016
N -1.906 -3.267 3.167
N 0.099 -1.079 3.267
C -0.075 2.842 2.073
N 0.339 0.492 1.549
C 0.83 0.121 2.846
