31
./arbalign_output/6ln3_ATP_conf13-aligned_to-6ln3_ATP.xyz
P 3.992 0.628 -0.18
O 5.657 -2.387 -1.053
O 1.308 3.344 -1.847
O 4.991 0.627 -1.561
P 4.526 -2.086 0.175
O 4.947 -2.986 1.563
O 3.608 -3.528 0.27
O 4.866 -0.702 -0.735
P 1.868 2.214 -0.735
O 5.358 0.547 0.815
O 0.182 2.163 -0.605
O 2.795 1.574 0.518
O 2.316 3.072 0.664
C -0.394 1.328 -1.529
C -1.898 1.275 -1.422
O -2.38 0.836 -0.217
C -2.514 0.452 -2.523
O -3.594 1.095 -3.102
C -2.949 -0.794 -1.75
O -4.339 -0.909 -1.874
C -2.524 -0.566 -0.333
N -1.227 -1.099 -0.034
C -1.084 -2.513 -0.218
N 0.212 -2.724 0.444
C 0.118 -1.877 1.644
C -0.199 -2.706 2.829
N 1.015 -2.998 3.56
N -1.162 -2.177 3.743
C -1.391 -0.752 3.547
N -1.954 -0.671 2.197
C -0.838 -0.785 1.302
