31
./arbalign_output/6ln3_ATP_model_27_chainB_pH74-aligned_to-6ln3_ATP.xyz
P 2.02 0.807 -7.127
O 3.404 1.338 -7.413
O 2.274 4.281 -7.305
O 1.464 0.025 -8.308
P 3.009 3.59 -4.138
O 2.98 2.534 -3.09
O 1.931 0.035 -5.859
O 0.999 2.068 -6.96
P 1.2 3.593 -6.506
O 4.186 3.593 -5.06
O -0.14 4.25 -6.564
O 1.603 3.53 -4.947
O 2.893 5.013 -3.378
C 3.101 6.201 -4.082
C -0.031 7.778 -2.925
O 2.188 7.369 -2.218
C 0.662 6.874 -3.911
O -0.09 9.113 -3.433
C 2.109 7.237 -3.617
O 0.262 7.132 -5.244
C 0.901 7.726 -1.732
N 0.446 6.744 -0.75
C 0.817 5.437 -0.624
N 0.175 4.884 0.412
C -0.611 5.84 0.953
C -1.524 5.896 2.051
N -1.753 4.803 2.831
N -2.177 7.052 2.317
C -1.95 8.143 1.541
N -1.104 8.166 0.502
C -0.444 7.023 0.215
