31
./arbalign_output/6ln3_ATP_model_33_chainB_pH74-aligned_to-6ln3_ATP.xyz
P 0.976 0.48 -8.066
O 1.671 -0.537 -8.953
O -1.973 2.04 -9.112
O 1.143 1.885 -8.588
P -1.905 1.034 -7.997
O 1.36 0.324 -6.642
O -0.602 0.104 -8.141
O -3.089 0.126 -7.898
P -1.63 3.329 -6.121
O -1.729 1.763 -6.576
O -1.09 4.188 -7.213
O -0.915 3.355 -4.82
O -5.746 1.556 -7.63
C -5.597 2.207 -6.384
C -5.414 3.712 -6.49
O -7.997 2.401 -6.399
C -4.008 4.127 -6.833
O -5.761 4.222 -5.223
C -6.862 2.16 -5.564
O -3.161 3.729 -5.81
C -6.674 3.325 -4.613
N -6.154 2.868 -3.326
C -4.859 2.82 -2.911
N -4.804 2.349 -1.664
C -6.069 2.091 -1.276
C -6.677 1.588 -0.087
N -5.925 1.25 0.996
N -8.02 1.442 -0.037
C -8.77 1.779 -1.113
N -8.27 2.262 -2.256
C -6.932 2.416 -2.331
