31
./arbalign_output/6ln3_ATP_model_30_chainB_pH74-aligned_to-6ln3_ATP.xyz
P 3.834 3.72 -5.564
O 6.874 2.868 -4.716
O 4.793 4.812 -5.951
O 4.559 2.279 -5.586
P 5.873 1.736 -4.787
O 5.399 1.281 -3.458
O 6.397 0.579 -5.619
O 3.331 3.895 -4.051
P 3.74 4.886 -2.829
O 3.635 4.104 -1.571
O 2.614 3.631 -6.418
O 5.034 5.581 -3.089
O 2.526 5.949 -2.823
C 2.511 7.005 -3.727
C -1.046 6.533 -4.603
O 0.316 7.519 -2.94
C 1.083 7.306 -4.105
O -1.454 7.558 -5.51
C 0.397 6.167 -4.839
O 0.708 6.106 -6.217
C -1.013 7.089 -3.194
N -1.413 6.071 -2.229
C -0.612 5.246 -1.498
N -1.362 4.462 -0.723
C -2.653 4.785 -0.957
C -3.913 4.329 -0.462
N -3.983 3.345 0.474
N -5.053 4.885 -0.936
C -4.983 5.866 -1.871
N -3.838 6.345 -2.373
C -2.69 5.806 -1.916
