31
./arbalign_output/6ln3_ATP_conf21-aligned_to-6ln3_ATP.xyz-noHydrogens.xyz
P 2.254 -0.653 -3.758
O 3.538 -1.302 -2.871
O 1.947 3.082 -5.349
O 1.804 0.264 -5.091
P 0.629 -2.523 -2.712
O 0.999 -3.327 -1.275
O 1.561 -3.385 -3.854
O 3.462 0.441 -4.053
P 1.19 1.748 -4.599
O -0.821 -2.885 -1.965
O -0.409 1.906 -5.169
O 1.341 -1.026 -2.359
O 0.079 2.103 -3.373
C 0.769 2.588 -2.268
C 0.666 3.528 -0.018
O 0.326 3.087 2.328
C -0.154 3.071 -1.173
O 0.317 4.795 0.442
C 0.334 2.515 1.059
O -0.936 1.995 -0.777
C -1.039 2.072 0.607
N 0.335 -0.36 2.093
C -0.781 -0.265 1.206
N -2.212 -3.649 1.92
C -1.255 -2.59 1.727
C 0.145 -1.289 3.191
N -0.212 -2.624 2.765
N -2.902 -0.94 0.873
C -2.864 0.527 0.797
N -1.55 0.927 1.258
C -1.838 -1.228 1.777
