31
./arbalign_output/6ln3_ATP_conf4-aligned_to-6ln3_ATP.xyz
P 4.462 0.476 -3.856
O 5.352 -0.723 -3.122
O 3.933 1.704 -4.839
O 5.959 -0.035 -4.378
P 4.191 -1.743 -2.385
O 4.641 -1.725 -0.748
O 4.472 -3.234 -3.164
O 2.921 -1.959 -3.452
P 2.71 0.891 -1.853
O 3.166 1.053 -0.251
O 3.939 1.635 -2.741
O 1.194 0.254 -1.459
O 2.432 2.523 -2.069
C 0.198 1.213 -1.544
C -2.614 1.607 0.233
O -3.931 1.974 0.453
C -2.243 1.591 -1.237
O -3.317 1.075 -1.939
C -1.148 0.54 -1.242
O -1.077 0.017 0.03
C -2.36 0.148 0.55
N -3.061 -2.481 1.61
C -2.206 -1.511 2.205
N -1.758 -3.709 3.222
C -2.869 -3.745 2.306
C -1.915 -2.756 4.29
N -0.639 -2.606 4.965
N -1.539 -0.322 4.019
C -2.391 -1.465 3.73
N -2.509 -0.14 1.919
C -1.661 0.548 2.837
