31
./arbalign_output/6ln3_ATP_model_39_chainB_pH74-aligned_to-6ln3_ATP.xyz
P -3.536 2.648 -4.824
O -2.9 1.626 -3.971
O -4.778 2.162 -5.528
O -2.547 3.257 -5.794
P -5.836 1.505 -1.385
O -4.844 0.52 -0.901
O -6.722 1.077 -2.499
O -3.967 3.877 -3.841
P -5.223 4.024 -2.838
O -5.023 2.868 -1.746
O -6.522 3.859 -3.564
O -6.713 1.941 -0.104
O -5.071 5.326 -2.123
C -7.925 2.6 -0.259
C -7.14 5.13 2.32
O -7.964 2.926 2.105
C -7.029 4.675 0.885
O -7.275 5.728 -0.025
C -8.09 3.59 0.869
O -8.255 6.009 2.477
C -7.413 3.83 3.048
N -6.185 3.284 3.615
C -5.336 2.373 3.059
N -4.327 2.124 3.902
C -4.531 2.88 5.003
C -3.84 3.072 6.237
N -2.691 2.395 6.511
N -4.337 3.939 7.147
C -5.482 4.614 6.879
N -6.185 4.48 5.75
C -5.711 3.62 4.826
