31
./arbalign_output/6ln3_ATP_model_48_chainB_pH74-aligned_to-6ln3_ATP.xyz
P 2.467 2.052 -7.516
O 3.739 1.085 -7.301
O 2.802 3.152 -8.453
O 5.573 2.811 -6.987
P 5.229 1.375 -6.713
O 5.169 1.045 -5.269
O 6.153 0.428 -7.466
O 1.302 1.201 -7.949
P 2.179 4.102 -5.359
O 2.132 2.631 -6.049
O -1.257 2.713 -8.182
O 3.047 5.033 -6.102
O 2.498 3.893 -3.906
C -1.514 3.247 -6.898
C -1.303 4.749 -6.795
O -2.039 5.151 -5.663
C 0.143 5.153 -6.625
O -3.785 3.517 -7.665
C -2.979 3.166 -6.537
O 0.645 4.603 -5.45
C -3.103 4.233 -5.465
N -3.024 3.646 -4.128
C -1.921 3.506 -3.338
N -2.265 2.924 -2.179
C -3.595 2.691 -2.228
C -4.552 2.114 -1.338
N -4.179 1.65 -0.113
N -5.846 2.028 -1.722
C -6.218 2.491 -2.942
N -5.377 3.049 -3.824
C -4.081 3.146 -3.466
