31
./arbalign_output/6ln3_ATP_model_23_chainB_pH74-aligned_to-6ln3_ATP.xyz
P 5.018 4.099 -6.687
O 5.756 2.693 -6.424
O 4.728 4.298 -8.15
O 4.47 1.193 -8.034
P 5.287 1.165 -6.761
O 4.524 0.689 -5.579
O 6.581 0.384 -6.94
O 5.865 5.167 -6.07
P 2.09 3.867 -6.229
O 3.66 4.03 -5.831
O 1.92 3.439 -7.651
O 1.455 3.021 -5.184
O 1.515 5.364 -6.025
C 1.699 6.335 -7.013
C 2.945 8.879 -4.633
O 0.923 7.963 -5.449
C 1.969 7.664 -6.347
O 3.203 10.092 -5.351
C 3.236 7.683 -5.509
O 4.423 7.854 -6.262
C 1.453 8.741 -4.388
N 1.192 8.091 -3.103
C 1.001 6.764 -2.852
N 0.783 6.574 -1.543
C 0.835 7.789 -0.952
C 0.689 8.271 0.388
N 0.427 7.415 1.417
N 0.813 9.596 0.637
C 1.073 10.452 -0.385
N 1.217 10.074 -1.664
C 1.099 8.756 -1.939
