31
aligned by ArbAlign
P       74.752256    53.408584    27.970720
O       75.632361    52.024282    28.248030
O       75.584534    54.864073    28.217755
O       75.628007    52.986387    26.585025
P       76.690346    52.166522    29.536677
O       76.009804    50.713307    30.015844
O       78.374639    52.087565    29.413432
O       77.174103    53.770528    29.835427
P       72.701942    55.000215    28.719470
O       73.271939    53.390889    28.799706
O       71.430516    55.308929    27.617269
O       72.019854    54.585800    30.194340
O       73.687100    56.345161    29.005899
C       73.631188    56.635051    30.368573
C       74.502984    57.850749    30.710373
O       74.393864    58.068725    32.054796
C       75.949023    57.475914    30.468302
O       76.317333    57.888474    29.167506
C       76.653311    58.288586    31.520387
O       77.008961    59.497036    30.877801
C       75.612593    58.485415    32.564692
N       77.016530    55.925702    33.303107
C       76.987873    54.557494    33.798744
N       75.667325    53.969589    33.774191
C       74.723815    56.090174    34.208932
C       74.778963    54.688186    34.684960
N       75.094444    54.491344    36.052323
N       74.173722    57.055594    35.131479
C       74.745667    58.324831    34.713508
N       75.903132    58.025946    33.867717
C       76.113872    56.658947    34.106015
