31
./arbalign_output/6ln3_ATP_model_22_chainB_pH74-aligned_to-6ln3_ATP.xyz
P 6.191 4.992 -3.044
O 5.415 3.728 -2.945
O 5.088 6.195 -3.09
O 6.945 5.086 -4.361
P 4.159 6.222 0.532
O 3.473 4.905 0.624
O 7.102 5.211 -1.864
O 6.082 8.0 -1.557
P 4.808 7.438 -2.111
O 5.607 6.25 0.881
O 3.98 8.434 -2.855
O 3.865 6.847 -0.946
O 3.339 7.254 1.473
C 3.824 8.546 1.686
C 0.671 10.202 0.668
O 1.652 9.094 2.518
C 2.009 9.626 0.273
O 0.778 11.614 0.873
C 2.668 9.522 1.641
O 2.699 10.47 -0.631
C 0.399 9.512 1.993
N -0.478 8.362 1.804
C -0.129 7.057 1.611
N -1.228 6.306 1.486
C -2.289 7.133 1.599
C -3.707 6.965 1.558
N -4.263 5.735 1.377
N -4.506 8.047 1.702
C -3.955 9.274 1.883
N -2.637 9.504 1.938
C -1.818 8.442 1.798
