31
./arbalign_output/6ln3_ATP_model_0_chainB_pH74-aligned_to-6ln3_ATP.xyz
P 1.05 6.56 -4.653
O -0.565 6.741 -4.525
O 1.685 7.932 -4.59
O 1.262 5.904 -6.006
P -0.274 8.475 -1.095
O 0.429 7.494 -0.223
O 1.456 5.667 -3.538
O -2.888 7.455 -3.931
P -1.454 7.838 -3.755
O -1.109 7.618 -2.2
O -1.117 9.234 -4.192
O 0.551 9.547 -1.725
O -1.449 9.129 -0.199
C -4.3 8.938 -0.906
C -3.595 10.118 -0.261
O -3.697 9.902 1.125
C -2.142 10.246 -0.652
O -4.708 9.174 -2.239
C -5.476 8.793 0.029
O -6.483 9.759 -0.287
C -4.856 9.124 1.372
N -4.493 7.911 2.102
C -3.294 7.259 2.11
N -3.367 6.193 2.915
C -4.614 6.161 3.427
C -5.313 5.304 4.33
N -4.703 4.223 4.891
N -6.607 5.57 4.629
C -7.219 6.646 4.075
N -6.624 7.494 3.227
C -5.335 7.25 2.911
