31
./arbalign_output/6ln3_ATP_model_25_chainB_pH74-aligned_to-6ln3_ATP.xyz
P -2.928 1.696 -5.596
O -3.093 0.726 -6.753
O -5.088 4.517 -5.337
O -2.279 2.988 -6.042
P -5.07 3.344 -4.39
O -2.006 4.272 -1.926
O -2.249 1.059 -4.437
O -4.445 2.035 -5.103
P -3.097 4.854 -2.75
O -4.105 3.634 -3.138
O -2.687 5.64 -3.958
O -6.403 2.962 -3.83
O -3.984 5.768 -1.753
C -4.871 6.714 -2.259
C -6.856 5.541 -1.194
O -8.685 6.686 -0.112
C -6.055 6.827 -1.327
O -7.764 5.316 -2.257
C -7.571 5.818 0.109
O -5.602 7.121 -0.023
C -6.508 6.546 0.91
N -5.801 5.631 1.807
C -4.627 4.971 1.586
N -4.313 4.237 2.662
C -5.287 4.426 3.577
C -5.539 3.946 4.901
N -4.674 3.092 5.514
N -6.657 4.346 5.551
C -7.52 5.199 4.943
N -7.345 5.694 3.709
C -6.238 5.31 3.039
