31
./arbalign_output/6ln3_ATP_conf43-aligned_to-6ln3_ATP.xyz
P 1.463 -6.132 -4.295
O -0.105 -5.548 -4.474
O -0.552 -4.561 -5.639
O 0.509 -6.445 -5.628
P -0.285 -3.94 -4.105
O 0.494 -6.38 -2.921
O 3.134 -6.132 -4.448
O 0.616 -2.755 -3.261
P -0.598 -1.715 -2.712
O -1.892 -4.097 -3.564
O -2.072 -1.393 -3.486
O -0.978 -2.413 -1.25
O -1.451 -0.479 -2.021
C -0.953 0.752 -2.394
C -0.667 3.655 -0.685
O -1.623 1.616 -0.35
C -1.254 3.185 -1.989
O -2.291 4.011 -2.422
C -1.769 1.835 -1.663
O -1.183 4.947 -0.464
C -1.242 2.732 0.304
N -0.404 2.472 1.45
C 0.854 1.86 1.089
N 1.853 2.326 2.046
C 1.031 2.888 3.113
C 1.754 3.842 4.006
N 2.41 3.037 5.043
N 0.733 4.627 4.688
C -0.576 4.062 4.521
N -1.05 4.035 3.171
C -0.049 3.575 2.255
