105
./arbalign_output/6y13_stapledHelix_conf19-aligned_to-6y13_stapledHelix.xyz
C -6.602 -1.673 -4.767
C -5.247 -1.448 -4.215
C -5.749 1.181 -2.103
C -4.455 3.191 -2.257
C -4.214 4.562 -0.144
C -4.684 0.233 -2.503
C -4.546 -2.809 -4.466
C -6.014 0.252 0.245
C 1.858 1.795 -1.096
C -4.149 4.543 -1.641
O -1.573 4.647 -0.55
N 1.841 8.502 -4.845
C -0.514 7.2 -2.398
C 1.162 3.99 -1.906
O 0.366 3.416 -2.896
C 1.285 3.157 -0.69
C -1.675 5.128 -1.682
N -2.971 5.063 -2.264
C -4.21 6.009 1.904
C -4.143 5.964 0.416
N -5.342 2.406 -1.522
N 1.846 8.158 -2.702
C 6.582 0.337 -3.187
C 5.76 1.044 1.755
C 7.948 0.88 -2.826
C 9.364 -0.407 -1.163
N 8.296 0.435 -1.502
C 2.933 2.699 1.096
O 5.961 -0.39 -2.37
N 6.005 0.66 -4.468
C 2.229 3.813 0.308
C 3.717 3.143 2.266
O 10.188 -0.908 -1.968
C 7.895 2.361 -2.993
C 2.577 8.607 -3.72
C 0.638 7.753 -3.109
C 0.648 7.981 -4.494
N 8.567 -0.074 1.094
C 7.414 -0.802 1.47
C 6.332 -0.251 2.28
O 7.304 -2.012 1.082
C 10.923 -0.273 0.674
C 10.995 0.492 3.017
C 11.271 -0.504 2.097
C 11.307 0.307 4.333
C 11.872 -1.698 2.517
C 11.893 -0.84 4.792
C 12.163 -1.829 3.849
O 12.222 -1.056 6.127
N 5.191 -1.181 2.391
C 2.751 -2.023 5.018
C 1.821 0.841 0.091
O 5.49 -1.313 4.611
C 2.025 0.861 2.595
C 0.219 -4.268 -0.375
N -1.676 0.219 6.123
N 0.745 5.332 -1.593
C 0.658 -0.108 -0.026
C -0.092 -2.351 -1.901
O -4.752 3.284 -3.596
C -0.471 5.705 -2.315
S 4.558 1.683 2.956
N -3.103 5.285 2.54
C -0.771 -3.286 -0.901
C 1.945 -4.963 1.369
O 3.881 -5.0 2.757
C 4.784 -1.705 3.652
C 1.883 1.663 1.33
C 3.68 -2.609 3.923
C 9.56 -0.758 0.291
N 0.962 -3.986 0.842
C 1.134 -6.139 1.898
C -0.967 -0.863 6.754
O 0.483 -5.363 -0.879
C 0.811 -2.623 6.495
C 2.893 -4.388 2.302
C 2.533 -7.187 3.773
N 0.023 -1.5 5.96
C 1.78 -3.1 5.441
N 2.832 -3.029 2.832
N -1.234 -1.215 7.97
N -1.895 -3.912 -1.57
C -1.766 -4.46 -2.843
C -6.487 -0.773 2.476
O -4.517 -3.349 -5.551
C -3.176 -4.688 -3.407
S 1.234 -1.378 -1.226
N -5.036 -1.074 -2.891
C -7.063 -0.454 1.115
C -5.299 -5.948 -3.034
O -3.881 0.861 -3.489
C -6.674 0.514 -1.066
C -8.567 -0.359 -3.872
C -9.473 0.671 -3.943
C -7.58 -0.606 -4.789
C -9.407 1.536 -5.007
C -7.527 0.29 -5.872
C -8.434 1.337 -5.964
O -10.304 2.602 -5.128
N -3.913 -3.446 -3.377
C 0.045 -5.629 2.854
C -3.877 -5.687 -2.533
O -1.13 -5.683 -2.855
C 1.758 -7.3 2.508
N -5.849 -6.942 -2.067
