105
./arbalign_output/6y13_stapledHelix_conf43-aligned_to-6y13_stapledHelix.xyz
C -4.683 -1.589 -4.706
C -3.33 1.079 -3.315
C -2.906 2.449 -3.643
C -0.442 3.066 -4.058
C -3.828 3.865 0.347
C -2.697 1.872 1.438
C -2.955 -3.105 -5.514
C -6.107 -0.504 -1.43
C -1.968 4.15 2.037
C -1.75 7.497 -5.388
O -0.312 3.477 -2.901
N -1.772 8.614 -4.565
C 0.741 3.168 -4.933
C 3.136 2.508 -4.526
O 3.149 2.317 -5.76
C -0.626 3.502 2.254
C -1.861 5.606 1.691
N -2.647 6.595 -5.581
C -2.615 3.287 0.992
C -2.644 3.079 -2.245
N -4.635 0.743 -2.863
N 1.916 3.033 -4.04
C 3.888 3.442 -1.541
C 3.581 3.374 -0.095
C 6.435 0.216 -3.953
C 6.71 1.653 -3.695
N 4.234 2.303 -2.324
C 2.292 4.091 0.275
O 1.611 1.641 -0.968
N -0.526 7.271 -6.15
C 4.337 2.18 -3.743
C 0.443 4.425 2.66
O 3.878 4.518 -2.146
C 5.673 2.194 -5.802
C 5.648 2.563 -4.339
C 0.758 4.603 -5.48
C -0.394 6.153 -7.013
N 3.48 2.021 0.419
C 3.006 0.156 3.248
C 4.093 -4.963 -0.893
O 2.55 1.208 3.653
C 3.83 -0.698 4.135
C 4.562 -2.717 2.863
C 3.694 -0.471 5.597
C 4.421 -5.656 0.425
C 4.8 -4.69 1.48
C 2.507 -2.199 6.838
C 2.493 -0.919 6.271
O 5.683 -2.181 2.333
N 2.753 -0.224 1.923
C 3.687 -6.029 -1.885
C -0.931 2.345 3.206
O -1.405 0.266 4.538
C 1.327 -0.193 6.423
C 0.242 -0.741 7.111
N -1.85 -0.785 2.617
N -1.692 2.517 -4.412
C 0.259 -0.667 -0.812
C -2.228 1.688 2.861
O -2.451 0.172 -3.448
C -0.416 4.779 -6.412
S 2.075 3.973 2.07
N -0.174 -2.056 -1.259
C -2.272 0.304 3.379
C -1.872 -3.251 2.579
O 1.197 -4.181 0.728
C 1.217 -0.9 0.27
C 1.851 0.331 0.952
C 3.81 -3.694 1.925
C 2.554 1.14 -0.151
N -0.437 -3.349 2.856
C 0.235 -4.635 2.766
C -0.889 -5.239 4.857
O -0.84 -2.465 8.319
C 0.445 -5.109 4.202
C 1.52 -4.654 1.979
C 0.287 -1.999 7.655
N 2.614 -4.007 2.541
C 1.442 -2.738 7.512
N 3.724 -2.044 3.726
N -0.185 -7.038 6.385
N -4.621 -4.304 3.19
C -3.691 -1.954 3.727
C -4.541 -3.162 3.832
O -9.115 -2.231 -1.644
C -2.656 -2.009 2.654
S -4.138 2.926 -1.188
N -6.723 -1.663 -0.871
C -7.745 -1.542 0.157
C -7.42 -2.33 1.384
O -6.504 0.595 -0.976
C -3.92 -2.759 -4.598
C -5.069 -0.56 -2.476
C -9.076 -1.905 -0.406
C -2.731 -2.261 -6.582
C -5.669 -1.366 -3.634
C -3.488 -1.112 -6.681
C -4.46 -0.748 -5.77
O -1.755 -2.606 -7.514
N -10.276 -1.913 0.336
C -5.521 -3.242 4.837
C -5.572 -5.079 3.723
O -2.356 -4.367 2.278
C -0.845 -5.7 6.287
N -6.132 -4.417 4.745
