105
./arbalign_output/6y13_stapledHelix_conf25-aligned_to-6y13_stapledHelix.xyz-noHydrogens.xyz
C -4.403 -0.38 0.28
C -1.677 -2.128 -7.168
C -1.793 1.272 -6.38
C -0.794 2.401 -6.352
C -2.013 5.338 0.442
C -2.694 2.846 2.594
C -3.244 1.405 2.425
C -3.721 -2.238 -1.328
C 0.118 1.824 -1.067
C -0.055 5.538 -7.012
O -0.993 1.405 -1.326
N -1.036 3.271 -5.185
C -0.302 3.725 -2.743
C 0.22 4.267 -7.522
O 3.144 7.301 -7.357
C -0.733 4.781 2.572
C -1.185 4.362 1.194
N -1.561 0.303 -7.41
C -1.935 3.047 1.307
C -1.575 4.407 -2.462
N -2.488 -0.162 -10.052
N 0.471 3.041 -1.798
C 5.453 3.907 -1.133
C 4.853 2.096 0.553
C 5.638 3.219 0.21
C 5.746 4.386 1.209
N 5.092 1.475 1.932
C 0.466 5.673 2.546
O 0.565 1.988 -4.047
N 2.508 1.728 -0.673
C 4.076 4.478 -1.343
C 3.443 1.843 0.333
O 3.94 3.107 3.01
C 2.183 6.301 -7.411
C 2.48 5.065 -7.916
C 1.518 4.079 -7.967
C 0.906 6.53 -6.959
N 4.094 -0.224 4.191
C 5.869 -1.109 -1.527
C 4.835 -3.083 -0.591
O 8.026 -0.412 -0.729
C 4.339 1.935 3.036
C 4.002 1.126 4.243
C 6.952 -1.299 -0.691
C 5.943 -3.219 0.218
C 7.013 -2.353 0.197
C 4.423 -2.602 3.795
C 5.041 -1.18 4.014
O 5.77 -1.254 5.251
N 1.53 -4.561 0.299
C 2.652 -3.582 0.428
C 1.166 0.029 0.475
O 2.85 1.643 1.506
C 2.51 1.458 4.546
C -0.064 -1.557 2.063
N -1.39 -1.807 2.57
N -4.479 1.5 1.748
C -0.471 3.495 3.361
C -1.836 3.001 3.803
O -2.741 1.195 -5.565
C -0.261 2.966 -4.05
S -1.631 5.676 -1.238
N -1.682 -3.474 -0.949
C -0.091 -0.379 1.157
C 0.561 -4.064 -0.564
O 0.957 -3.875 -1.884
C 0.462 3.722 4.516
C 1.13 1.339 -0.159
C 3.692 -3.987 -0.624
C 4.818 -1.996 -1.474
N -2.839 -3.136 4.117
C -1.564 -2.834 3.571
C -1.362 -5.269 0.605
O 3.726 -4.866 2.175
C -0.543 -6.429 1.116
C 3.383 -3.767 1.742
C 3.048 -4.341 5.053
N 2.344 -4.484 6.384
C 3.631 -2.964 5.035
N 3.697 -2.642 2.569
N -0.568 -3.525 4.015
N -4.275 -1.726 -0.05
C -0.851 -4.562 -0.569
C -5.414 -0.647 2.568
O -3.355 0.967 3.75
C -3.034 -3.563 -1.211
S 2.096 3.149 4.458
N -6.918 -1.604 -3.976
C -7.003 -2.135 1.13
C -6.263 -1.817 2.246
O -3.795 0.423 -0.461
C -5.162 0.243 1.425
C -5.044 -2.417 -2.116
C -4.93 -2.916 -3.489
C -2.412 -0.861 -7.59
C -6.381 -2.978 -4.042
C -0.821 3.223 -7.584
C -2.855 -1.031 -8.99
O -3.611 -2.001 -9.304
N -6.523 -2.779 3.154
C -0.387 -7.473 0.032
C -7.384 -3.636 2.594
O -3.827 -4.546 -0.688
C 0.417 -8.658 0.473
N -7.705 -3.271 1.341
