105
./arbalign_output/6y13_stapledHelix_conf36-aligned_to-6y13_stapledHelix.xyz-noHydrogens.xyz
C 1.006 3.212 -4.003
C 0.024 2.808 -2.897
C 0.86 2.2 -1.81
C 0.182 2.435 -0.457
C 0.249 3.923 -0.274
C -0.785 4.489 -1.18
C -0.872 3.908 -2.559
C -2.301 3.613 -2.938
C -0.062 4.313 1.158
C 1.0 0.727 -1.922
O -1.342 3.816 1.432
N 0.833 3.773 2.115
C 2.161 4.217 2.154
C 2.952 3.497 3.17
O 4.08 3.942 3.455
C 2.381 5.682 2.36
C 1.861 6.266 3.586
N 1.992 7.594 3.886
C 1.181 5.729 4.657
C 1.421 7.81 5.061
N 0.905 6.678 5.571
N 2.567 2.33 3.867
C 3.472 1.758 4.947
C 2.642 1.444 6.099
C 3.087 0.879 7.377
C 3.65 -0.468 7.507
N 2.675 -1.492 7.015
C 4.335 0.783 4.256
O 5.348 0.191 4.988
N 3.642 -0.209 3.447
C 4.648 -1.173 2.957
C 5.509 -0.454 1.948
O 4.657 0.034 0.984
C 3.921 -2.298 2.307
C 4.736 -3.424 1.783
C 3.759 -4.443 1.171
C 4.529 -5.625 0.624
N 6.544 -1.338 1.433
C 7.362 -0.747 0.418
C 6.751 -0.519 -0.894
O 7.372 0.196 -1.708
C 8.71 -1.438 0.305
C 8.569 -2.864 -0.029
C 8.448 -3.837 0.955
C 8.559 -3.259 -1.349
C 8.317 -5.185 0.635
C 8.429 -4.601 -1.673
C 8.307 -5.584 -0.685
O 8.178 -6.926 -1.039
N 5.516 -1.034 -1.378
C 4.859 -0.661 -2.579
C 4.31 -1.704 -3.461
O 3.79 -1.024 -4.605
C 5.393 0.527 -3.348
C 5.288 1.843 -2.62
N 5.889 2.923 -3.465
N 3.42 -2.665 -2.994
C 2.135 -2.444 -2.572
C 1.352 -3.667 -2.248
O 1.63 -4.829 -2.468
C 1.204 -1.666 -3.494
S 1.459 0.108 -3.561
N 0.092 -3.424 -1.569
C -0.92 -4.431 -1.388
C -2.28 -3.883 -1.714
O -3.275 -4.596 -1.919
C -1.059 -4.848 0.09
C 0.213 -5.41 0.638
C -2.159 -5.875 0.218
C -0.009 -5.798 2.084
N -2.541 -2.473 -1.802
C -3.82 -1.933 -2.201
C -3.741 -0.519 -2.645
O -2.803 0.235 -2.375
C -4.711 -1.859 -0.902
C -4.034 -0.97 0.081
C -4.798 -0.804 1.354
N -4.023 0.089 2.194
C -4.431 0.526 3.477
N -3.618 1.402 4.23
N -5.555 0.103 3.922
N -4.777 0.029 -3.439
C -4.981 1.382 -3.838
C -6.358 1.638 -4.302
O -7.123 0.609 -4.353
C -3.97 1.965 -4.801
S -2.352 2.305 -4.157
N -6.834 2.933 -4.681
C -8.208 3.03 -5.13
C -9.201 2.357 -4.292
O -10.349 2.147 -4.811
C -8.362 2.869 -6.596
C -7.885 1.574 -7.119
C -8.688 0.456 -7.231
C -6.544 1.516 -7.509
C -8.125 -0.711 -7.735
C -5.997 0.349 -8.008
C -6.793 -0.774 -8.123
O -6.24 -1.961 -8.631
N -9.022 1.917 -2.963
C -10.16 1.247 -2.332
C -10.687 2.247 -1.333
O -10.129 3.381 -1.189
C -9.653 0.077 -1.554
N -11.81 1.881 -0.572
