105
./arbalign_output/6y13_stapledHelix_conf30-aligned_to-6y13_stapledHelix.xyz
C -5.615 -4.015 -6.318
C -5.634 0.128 -0.787
C -2.12 7.872 1.384
C -0.353 4.538 -3.153
C -1.3 1.109 -0.473
C -0.674 -3.639 -3.111
C -4.464 0.541 0.032
C -5.728 -2.171 -1.875
C 0.217 3.025 -1.188
C -1.606 5.112 -3.865
O 0.935 4.015 0.788
N -2.331 6.619 1.241
C 0.892 7.108 0.818
C 2.153 6.313 1.059
O 6.856 5.301 -0.562
C 1.06 3.961 -0.456
C -0.859 3.72 -2.039
N -3.21 8.773 1.099
C -2.152 0.354 0.407
C -1.845 4.49 -1.216
N -6.24 3.069 0.498
N -0.898 8.403 1.787
C 4.081 5.136 0.198
C 6.976 4.083 -0.206
C 9.803 5.081 -0.735
C 11.166 3.669 -2.172
N 8.407 4.784 2.575
C 2.804 5.78 -0.163
O 4.776 5.372 1.189
N 2.044 4.848 -0.981
C 9.927 4.294 -1.97
C 5.73 3.27 -0.283
O 10.788 1.926 -5.33
C 10.46 2.716 -4.235
C 11.433 2.896 -3.278
C 8.973 4.106 -2.926
C 9.251 3.318 -4.048
N 8.185 3.545 0.24
C 4.419 -0.213 0.445
C 4.155 -1.497 -0.328
O 7.651 4.554 6.011
C 9.44 4.187 0.406
C 7.193 6.402 3.803
C 9.563 4.858 1.734
C 5.852 0.049 0.744
C 8.326 5.361 3.887
C 3.735 0.96 2.544
C 7.8 4.302 4.784
O 10.564 5.453 2.134
N 4.603 4.137 -0.69
C 2.081 -2.667 -1.231
C -0.323 -3.057 -1.774
O 2.868 -3.317 -2.182
C 2.053 -0.159 1.126
C 1.239 -6.462 -4.248
N 1.884 -5.513 -4.966
N -0.555 2.292 -0.155
C 1.289 -4.354 -4.648
C -1.731 -0.767 1.251
O -1.171 0.749 -1.668
C 0.304 7.664 2.094
S 6.705 0.737 -0.736
N -3.291 -0.225 -0.423
C 0.275 -4.545 -3.737
C -0.564 -4.05 -0.666
O 0.274 -4.362 0.181
C 2.822 -1.32 -1.014
C 1.942 -0.326 -0.348
C 3.52 -0.214 1.629
C 5.769 2.193 -1.286
N 0.274 -5.894 -3.508
C -1.996 -5.736 0.537
C -3.18 -6.61 0.194
O -2.881 -7.171 -1.061
C -2.3 -6.04 2.952
C -2.189 -5.031 1.87
C -1.059 -6.894 3.067
N 0.802 -2.283 -1.62
C 1.249 -1.092 1.955
N 7.446 2.998 4.342
N -1.28 -7.844 4.21
N -1.839 -4.706 -0.519
C -5.546 -6.366 -0.419
C -6.643 -5.298 -0.166
O -4.751 0.166 1.36
C -5.983 -3.633 -1.841
S -0.397 -0.739 2.311
N -5.811 -1.353 -0.681
C -7.055 -3.965 -2.813
C -6.258 -7.638 -0.121
O -5.428 -1.52 -2.889
C -5.942 -4.365 -5.025
C -6.718 -3.576 -4.201
C -7.164 -2.38 -4.759
C -6.902 0.776 -0.316
C -6.84 -2.026 -6.05
C -7.088 2.223 -0.325
C -6.062 -2.819 -6.873
O -5.746 -2.456 -8.161
N -6.293 -3.981 -0.484
C -5.968 -7.888 2.402
C -6.863 -7.83 1.21
O -7.829 -5.736 -0.781
C -5.016 -9.065 2.352
N -4.416 -5.925 0.244
