105
./arbalign_output/6y13_stapledHelix_conf24-aligned_to-6y13_stapledHelix.xyz-noHydrogens.xyz
C -6.27 3.539 -0.681
C -3.775 -1.239 -2.33
C -4.444 4.218 -2.038
C -3.031 0.706 -3.796
C -4.009 1.515 2.002
C -2.524 -2.061 -2.592
C -4.623 0.941 3.23
C -6.03 0.519 3.048
C 0.607 1.702 0.567
C -1.255 3.351 -5.658
O -2.461 2.574 -0.063
N -0.129 3.961 -3.592
C 1.162 2.731 -5.243
C 2.599 1.442 -6.768
O 1.683 5.343 -3.832
C 1.147 2.708 -0.42
C -1.819 1.816 0.978
N -1.926 2.172 -5.266
C -2.663 2.124 2.235
C -2.602 2.153 -4.0
N -3.377 0.199 -2.524
N 0.489 3.936 -0.734
C 2.043 6.167 0.162
C 6.588 1.315 -0.493
C 7.475 0.432 0.423
C 8.832 0.924 0.241
N 9.613 1.519 1.266
C 0.986 4.915 -1.666
O 2.215 2.543 -1.042
N 0.956 7.776 1.523
C 1.168 4.304 -3.023
C 3.579 -0.743 -1.301
O 9.39 0.834 -0.896
C 2.304 5.509 -1.167
C 1.036 7.285 0.114
C 2.78 1.067 -8.21
C 1.357 2.355 -6.683
N 6.965 0.559 1.793
C 5.399 -0.486 3.534
C 2.94 -0.821 3.531
O 5.738 -1.317 1.368
C 8.545 1.637 5.922
C 7.458 0.824 5.654
C 9.736 1.411 5.259
C 7.546 -0.22 4.725
C 9.865 0.377 4.323
C 6.346 -1.052 4.535
C 8.747 -0.431 4.073
O 10.824 2.233 5.536
N 2.789 0.129 -0.664
C 0.841 -1.288 4.732
C -1.718 -0.757 3.24
O 2.904 0.442 3.776
C 1.665 -1.5 3.431
C 0.749 -3.523 2.318
N 1.707 -2.935 3.155
N -0.529 2.287 1.171
C 0.279 0.474 -0.262
C -1.978 1.677 3.461
O -3.085 -0.099 -4.732
C 0.042 3.678 -5.031
S -6.591 -0.413 1.668
N 2.771 -1.645 -1.874
C -2.371 0.361 4.019
C -3.83 0.021 4.055
O -0.065 -2.725 1.779
C 1.481 -1.315 -1.58
C 1.503 -0.165 -0.795
C 3.431 -5.503 -0.498
C 6.035 -0.437 2.201
N 2.96 -6.766 -0.979
C -1.79 -5.907 2.391
C -3.284 -5.934 2.224
O -1.188 -6.65 3.181
C 0.526 -4.948 1.963
C 1.275 -5.23 0.693
C 3.279 -8.038 -0.463
N 4.061 -8.252 0.526
C 2.776 -5.217 0.861
N 4.227 -1.379 3.394
N 2.666 -9.164 -1.127
N -0.954 -5.024 1.646
C -4.303 0.166 5.498
C -4.364 -3.674 1.855
O -5.452 -0.496 -0.818
C -4.781 -2.483 1.071
S -0.843 -1.881 4.365
N -4.538 -2.558 -0.332
C -6.144 -2.115 1.547
C -5.222 -7.311 1.465
O -7.071 3.746 0.436
C -2.828 -3.522 -2.489
C -4.317 -1.335 -0.946
C -6.491 2.471 -1.547
C -5.237 4.428 -0.919
C -5.699 2.269 -2.659
C -3.849 3.024 -4.078
C -4.675 3.143 -2.906
O -0.975 3.261 -7.074
N -1.568 -4.309 -2.748
C -3.698 -7.24 1.641
C -5.963 -7.155 2.75
O -4.61 -3.693 3.076
C -3.353 -8.357 2.61
N -3.698 -4.819 1.357
