105
./arbalign_output/6y13_stapledHelix_conf17-aligned_to-6y13_stapledHelix.xyz-noHydrogens.xyz
C -6.343 0.785 -3.09
C -5.12 0.482 -3.68
C -4.879 0.976 -4.963
C -2.564 5.157 -4.423
C -1.145 3.178 1.361
C -3.487 2.207 1.593
C -4.075 -0.3 -3.035
C -4.122 -1.78 -3.165
C 0.885 -1.794 -3.875
C -1.65 6.213 -4.501
O -0.977 5.462 -0.073
N -0.016 3.502 0.43
C 1.201 4.822 -2.396
C 1.185 5.337 -0.94
O -3.801 5.228 -5.075
C 0.079 4.764 -0.19
C -0.988 3.967 -3.036
N -4.537 1.56 0.731
C -2.293 2.534 0.698
C -2.197 4.075 -3.692
N -5.229 -2.414 -9.168
N 2.538 4.978 -0.474
C 4.897 6.602 0.931
C 5.697 3.927 0.187
C 7.62 2.734 -0.8
C 9.23 3.616 -2.371
N 10.097 2.491 -1.981
C 2.716 5.324 0.891
O 2.098 4.375 1.749
N 4.905 4.19 1.32
C 3.991 7.797 1.022
C 4.119 5.367 1.364
O 4.952 3.567 -0.919
C 4.728 9.077 0.64
C 8.388 3.959 -1.124
C 3.794 10.29 0.728
C -0.418 6.125 -3.842
N 6.089 1.508 0.541
C 4.263 -2.39 -1.239
C 4.482 -2.307 0.294
O 5.354 -3.344 0.622
C 6.722 2.798 0.4
C 5.403 -0.613 1.828
C 5.998 0.758 1.742
C 6.232 -1.572 2.627
C 6.556 -1.054 4.006
C 5.817 -1.202 5.163
C 7.606 -0.024 5.682
O 6.457 1.34 2.747
N 5.08 -1.017 0.508
C 1.815 -4.593 -2.949
C 0.182 -0.742 0.858
O -1.475 2.111 3.434
C 2.608 -3.378 -2.887
C -0.206 -0.722 3.261
N -1.124 -1.797 3.338
N 0.33 1.362 2.058
C 1.487 0.084 -1.669
C -0.514 2.46 2.538
O -3.194 -3.041 -4.9
C -0.059 5.024 -3.108
S -0.065 -0.171 -0.792
N -2.947 -2.275 -2.423
C -0.312 0.135 1.999
C -0.543 -3.807 -1.345
O 0.57 -0.552 4.169
C 2.182 -1.253 -1.766
C 2.121 -2.007 -3.062
C 3.347 -3.485 -1.53
C 3.705 -1.025 -1.57
N -2.242 -5.179 -0.079
C -1.588 -3.997 3.509
C -1.754 -5.265 1.226
O -0.829 -4.38 1.463
C -1.803 -2.591 5.535
C -0.973 -2.914 4.312
C -2.456 -3.416 7.745
N 6.465 -0.57 6.176
C -1.621 -3.746 6.539
N 7.631 -0.331 4.381
N -1.329 -5.375 3.487
N -3.631 -9.435 2.442
C -3.262 -2.432 5.273
C -3.406 -6.423 2.757
O -4.105 -4.011 -1.484
C -1.874 -3.934 -0.795
S 0.031 -4.608 -2.814
N -5.241 -2.177 -5.427
C -3.008 -3.403 -1.582
C -4.256 -7.15 1.791
O -5.556 -0.658 -7.722
C -4.175 -2.342 -4.513
C -5.141 -2.815 -6.707
C -6.252 -3.871 -6.83
C -5.323 -1.885 -7.849
C -7.304 1.544 -3.721
C -5.85 1.738 -5.589
C -7.058 2.035 -5.001
O -7.981 2.802 -5.687
N -5.929 -9.784 3.018
C -3.774 -8.489 1.367
C -4.678 -10.009 3.185
O -2.492 -3.598 2.716
C -2.042 -6.127 2.373
N -4.282 -10.935 4.226
