105
./arbalign_output/6y13_stapledHelix_conf45-aligned_to-6y13_stapledHelix.xyz
C -3.365 -1.593 -3.753
C -3.241 0.207 -2.133
C -1.905 3.239 -2.904
C 0.702 1.744 -5.402
C -1.076 3.067 -1.705
C -4.06 0.927 4.65
C -3.284 -1.135 -2.461
C -4.817 -4.157 -0.304
C -0.692 3.112 0.792
C -0.086 3.856 -4.398
O 0.158 2.851 -1.689
N 1.99 3.788 -5.684
C 0.729 3.292 -5.534
C 2.568 5.024 -5.659
O 3.836 5.039 -6.339
C -1.461 5.35 1.643
C 1.167 -0.467 -6.325
N -1.21 3.004 -4.157
C -1.218 3.901 1.913
C -0.294 -0.843 -6.141
N -2.449 5.616 0.595
N 1.727 9.082 -1.648
C 4.204 3.933 -3.276
C 5.093 3.444 -2.218
C 6.439 4.086 -2.227
C 6.531 5.536 -2.118
N 6.788 7.695 -2.442
C 2.755 5.776 -4.357
O 3.009 1.781 -1.471
N 3.724 5.253 -3.434
C 1.664 8.147 -2.821
C 4.011 1.27 -2.221
O 3.813 3.12 -4.132
C 6.679 6.531 -3.09
C 6.717 7.478 -1.128
C 3.015 8.139 -3.499
C 3.048 7.213 -4.684
N 6.559 6.167 -0.904
C 5.278 -0.009 -0.508
C 2.753 0.886 2.082
O 2.405 -0.808 4.17
C 5.343 -1.126 0.433
C 5.022 -3.343 -0.636
C 4.408 -2.259 0.188
C 1.456 0.516 7.707
C 5.346 -0.705 1.902
C 1.976 -0.335 8.849
C 1.998 0.376 10.182
O 1.027 -2.49 7.09
N 5.228 2.003 -2.317
C 0.219 1.271 8.081
C 2.272 -3.11 -0.584
O 0.519 1.085 0.219
C 1.589 0.132 4.013
C 0.1 -4.832 0.606
N -2.835 1.394 4.65
N -1.6 3.115 -0.342
C -0.177 1.754 1.181
C -2.865 -1.129 5.183
O -3.408 -2.965 -4.002
C 1.275 1.047 -6.582
S 3.729 -0.534 2.573
N 0.504 1.774 2.496
C 1.34 0.652 2.707
C -1.086 -4.837 1.505
O -0.76 -2.519 2.801
C 3.073 -1.824 -0.362
C 3.276 -1.103 -1.637
C 1.473 -0.199 6.445
C 4.409 -0.161 -1.731
N -4.176 -0.489 4.941
C -3.027 -2.594 5.302
C -2.127 -5.834 1.19
O -2.715 -6.448 2.15
C -1.86 -3.407 5.721
C -0.715 -3.491 3.577
C -0.546 -3.248 5.02
N -0.048 -1.856 5.213
C 0.844 -1.535 6.299
N 0.999 0.542 5.271
N -0.824 -4.757 2.931
N -2.553 -6.184 -0.113
C -3.203 -8.299 -1.229
C -3.572 -7.134 -0.385
O -3.404 -10.079 -3.572
C -4.791 -6.479 -1.055
S 0.992 -3.283 0.696
N -5.192 1.731 4.39
C -6.746 -4.545 1.55
C -6.315 -5.622 0.773
O -6.632 -2.197 2.156
C -5.341 -5.421 -0.162
C -5.225 -3.095 0.441
C -6.221 -3.273 1.406
C -3.28 1.149 -3.13
C -3.403 -0.65 -4.759
C -3.243 2.6 -2.923
C -3.36 0.693 -4.441
O -0.426 5.172 -4.672
N -1.881 -8.539 -1.634
C -1.302 -9.543 -2.442
C -2.202 -10.295 -3.351
O -4.19 -9.047 -1.541
C -0.423 -10.534 -1.765
N -1.611 -11.398 -4.057
