105
./arbalign_output/6y13_stapledHelix_conf8-aligned_to-6y13_stapledHelix.xyz
C -6.893 2.948 2.666
C -3.168 -1.284 -3.481
C -3.476 0.068 -3.021
C -2.736 4.744 0.492
C -1.852 -1.873 -3.038
C -4.522 1.168 3.053
C -6.169 2.838 3.973
C -5.555 1.476 4.15
C -1.322 4.267 2.41
C -1.684 4.52 -2.406
O -2.518 5.833 -0.016
N 0.92 1.571 -4.824
C 0.592 5.495 -2.357
C 1.633 4.591 -2.843
O 5.107 9.89 -3.812
C 2.274 1.524 -4.39
C -2.796 4.449 1.968
N -0.502 4.762 -1.699
C -3.508 2.255 3.162
C -2.897 3.814 -1.88
N -2.942 3.664 -0.464
N 1.63 3.181 -2.735
C 1.116 6.587 -1.499
C 3.309 1.498 -2.206
C 2.96 4.263 2.014
C 4.522 7.961 -2.438
N 7.956 -2.238 -2.474
C 2.715 2.385 -3.26
O 3.044 0.737 -5.0
N 1.585 4.575 1.853
C 2.206 7.39 -2.047
C 0.855 5.526 2.641
O 2.638 5.109 -3.421
C 4.186 9.054 -3.221
C 3.551 7.159 -1.872
C 1.871 8.487 -2.832
C 2.842 9.297 -3.404
N 3.634 4.868 2.933
C 5.667 -3.116 -2.517
C 3.372 -4.124 -2.966
O 0.663 0.77 7.474
C 6.984 -2.978 -3.316
C 2.269 -1.676 5.283
C 2.011 -0.913 6.393
C 5.201 -5.64 0.456
C 7.913 -5.169 1.237
C 5.833 -6.582 1.401
C 7.35 -6.561 1.071
O 3.686 -5.689 2.896
N 3.595 3.294 1.169
C 1.518 -1.603 4.115
C 0.412 -1.895 -1.132
O -2.647 2.369 4.02
C 3.364 -5.148 -1.833
C 0.48 -0.726 4.091
N 0.998 0.067 0.257
N -0.918 0.815 0.831
C 0.526 -1.57 -2.635
C -1.157 -0.263 0.065
O 0.848 -3.488 -4.082
C -0.608 5.59 2.221
S -5.493 3.153 -2.364
N -0.694 -1.129 -3.066
C 0.067 -0.748 -0.307
C 0.211 0.047 5.2
O 2.037 -5.732 -1.804
C 1.236 -2.728 -3.192
C 0.404 1.032 0.961
C 1.956 -2.479 3.003
C 4.742 -3.857 -3.415
N 2.52 -3.014 -2.652
C -0.061 -3.957 3.143
C -2.255 -5.094 2.43
O -0.705 -3.161 3.837
C 1.442 -3.872 3.05
C 0.965 -0.03 6.366
C 3.372 -4.79 1.855
N 1.921 -4.654 1.951
C 3.705 -5.481 0.508
N 3.393 -4.496 -0.554
N -0.834 -4.936 2.473
N -4.046 -0.164 3.364
C -3.976 -2.57 2.337
C -4.31 -1.149 2.355
O -4.92 -0.694 1.355
C -4.902 1.474 5.516
S -5.95 -2.489 0.425
N -3.546 3.242 2.148
C -4.766 -2.615 -0.933
C -5.167 -3.353 1.856
O -1.78 -3.125 -3.685
C -5.239 -2.082 -2.224
C -4.248 -2.318 -3.297
C -5.769 -0.715 -2.31
C -4.764 0.417 -2.417
C -6.72 -0.711 -3.531
C -4.13 4.243 -2.563
C -5.526 1.551 -3.063
O -1.81 4.91 -3.627
N -3.277 -3.062 3.467
C -3.069 -4.498 3.534
C -2.602 -6.523 2.265
O -4.379 -5.059 3.359
C -2.07 -7.179 1.015
N -2.548 -8.599 1.064
