105
./arbalign_output/6y13_stapledHelix_conf39-aligned_to-6y13_stapledHelix.xyz-noHydrogens.xyz
C -5.261 0.132 0.008
C -3.188 -1.56 -4.158
C -1.953 -1.018 -6.308
C -3.523 3.155 1.078
C -3.462 1.402 3.076
C -2.08 -2.1 -0.556
C -2.989 -0.929 -0.446
C -6.239 -0.132 1.177
C -1.544 2.691 2.507
C -3.049 3.13 -2.154
O 3.135 0.195 -2.722
N -1.923 6.762 2.767
C -0.037 2.573 -3.339
C 1.361 2.201 -3.151
O -0.271 2.817 -4.726
C -0.899 6.046 2.302
C -1.576 7.326 3.914
N -1.046 1.784 -2.758
C -2.872 2.134 1.937
C -2.409 2.078 -2.994
N -2.78 -0.373 -3.655
N 1.893 1.869 -1.854
C 1.489 5.558 3.043
C 3.115 3.952 3.594
C 5.203 3.05 2.555
C 5.81 4.185 1.72
N 5.883 6.703 0.256
C 2.845 0.784 -1.673
O 3.877 4.486 4.417
N 4.46 4.154 -4.169
C 0.161 6.146 3.179
C 1.668 4.176 3.729
O 7.274 2.087 2.544
C 6.073 5.412 -0.413
C 5.329 4.289 0.33
C 3.705 2.96 -3.718
C 2.266 3.372 -3.629
N 5.844 1.154 1.075
C 5.682 -0.577 -0.593
C 2.857 -0.255 2.932
O 6.169 -1.916 -0.807
C 5.868 1.743 2.365
C 6.238 -0.173 0.838
C 7.631 -0.636 0.792
C 3.293 -0.791 4.113
C 8.562 -0.572 1.913
C 7.946 -2.77 2.934
C 8.145 -1.296 3.173
O 4.183 -2.63 5.289
N 3.772 3.171 2.582
C 1.843 -4.997 -1.898
C 1.127 -4.141 -2.707
O -0.512 2.777 4.947
C 2.825 -0.898 1.721
C -1.412 0.309 3.519
N -4.367 -0.994 -0.082
N -0.306 6.956 4.173
C 0.321 -3.147 -2.192
C -0.63 -1.845 -0.371
O -2.514 0.155 -0.688
C -0.763 1.504 3.005
S -3.138 3.393 -0.537
N -4.468 -3.302 -2.626
C 0.208 -2.974 -0.789
C -2.863 0.029 3.055
O 2.654 -6.001 -2.43
C 0.251 2.182 3.902
C 2.314 -0.282 0.473
C 3.29 -2.222 1.742
C 3.423 0.407 -0.368
N -4.687 -4.56 0.18
C -3.496 -1.139 3.717
C -2.5 -4.17 0.978
O -1.52 -4.661 1.467
C 0.926 -3.835 -0.039
C 1.739 -4.84 -0.528
C 3.745 -2.111 4.08
N 0.745 3.317 3.142
C 3.743 -2.822 2.899
N 4.309 -0.686 -0.61
N -2.748 -3.105 0.137
N -2.453 -8.38 -5.256
C -4.229 -5.205 -1.05
C -4.516 -7.431 -3.757
O -3.616 -3.779 -4.635
C -4.504 -4.789 -2.425
S -3.851 -2.662 3.191
N -6.663 -0.582 -2.027
C -5.743 -5.402 -3.015
C -5.684 -6.958 -2.925
O -7.016 1.376 -0.909
C -4.827 1.682 3.512
C -3.75 -2.803 -3.758
C -6.328 0.287 -1.012
C -3.324 -1.444 -5.707
C -5.72 -0.653 -6.128
C -3.285 0.953 -3.491
C -4.26 -0.541 -6.319
O -4.45 1.127 -3.766
N -4.326 -8.862 -3.842
C -3.935 -4.869 1.371
C -3.2 -9.257 -4.67
O -3.548 -6.23 -0.826
C -4.205 -4.176 2.668
N -2.888 -10.621 -4.875
