105
./arbalign_output/6y13_stapledHelix_conf26-aligned_to-6y13_stapledHelix.xyz
C -4.358 0.351 -3.672
C -4.227 3.838 0.336
C -1.658 -0.705 -5.203
C -4.484 6.644 2.871
C -0.126 -0.801 -5.152
C -3.517 3.684 2.723
C -3.434 -1.08 -2.008
C -5.005 -0.234 0.854
C -2.314 7.852 5.409
C -3.987 2.759 -6.529
O -1.4 2.708 2.715
N -2.192 9.126 5.297
C 0.422 1.608 -6.924
C -0.08 7.612 4.463
O 3.389 7.13 -1.739
C 0.183 4.756 2.738
C 0.453 0.528 -4.672
N -3.505 7.304 5.958
C -4.303 4.425 1.74
C -4.164 5.892 1.603
N -2.081 -0.666 -3.844
N -1.237 6.974 4.988
C 3.918 3.491 -1.893
C 3.999 2.28 1.05
C 6.012 2.092 -1.665
C 5.975 4.558 -1.514
N 6.451 -0.977 0.009
C 1.06 5.902 2.877
O 0.165 3.237 0.823
N 4.435 -1.276 -3.692
C 3.309 4.723 -1.906
C 1.065 6.824 4.024
O 4.571 3.337 1.43
C 5.392 5.81 -1.522
C 5.281 3.387 -1.694
C 4.023 5.896 -1.723
C 1.923 1.486 -7.081
N 4.679 1.348 0.234
C 2.627 2.028 1.452
C 2.67 1.041 2.663
O 8.072 0.474 -0.673
C 6.046 1.547 -0.219
C 6.847 -3.073 -1.138
C 6.855 0.325 -0.29
C 3.5 -1.555 3.83
C 7.358 -2.095 -0.109
C 2.265 -2.282 4.179
C 7.641 -2.752 1.207
O 7.122 -2.341 2.274
N 1.994 3.176 2.14
C 1.055 -1.497 4.46
C 2.448 -3.375 -3.334
O 1.806 -5.414 -1.293
C 1.381 -0.55 5.619
C 0.702 -4.867 -1.247
N 0.328 -4.124 -2.399
N -1.237 4.949 2.637
C -2.041 3.779 2.694
C 0.369 -3.192 -4.681
O -2.131 -1.87 -5.809
C 0.028 1.705 -5.463
S 3.457 -0.488 2.397
N 0.351 -1.857 -4.367
C 1.073 -4.035 -3.621
C -0.215 -4.953 -0.035
O -0.867 -3.777 -4.855
C 3.25 -3.254 -4.588
C 0.721 3.69 1.809
C 1.995 -3.258 3.047
C 4.589 -2.622 -4.279
N -3.903 2.259 2.587
C -1.425 -1.974 4.193
C -0.971 -6.295 -0.169
O -0.024 -3.048 1.49
C 0.021 -4.303 2.161
C -0.136 -2.369 4.861
C 0.154 -3.843 4.643
N 0.648 -5.176 1.139
C 0.876 -4.173 3.395
N 8.531 -3.867 1.162
N -2.076 -7.603 3.027
N -5.042 -0.272 2.234
C -4.149 -0.986 4.342
C -5.516 -2.624 0.631
O -6.296 0.021 0.367
C -3.933 -0.226 3.076
S -2.571 -1.048 5.265
N -4.628 -1.305 -1.267
C -4.58 -1.557 0.159
C -5.308 -3.983 0.036
O -2.385 -1.107 -1.354
C -3.475 1.19 3.387
C -3.446 -0.821 -3.517
C -5.346 0.422 -5.967
C -4.503 0.951 -4.988
C -5.501 1.055 -7.201
C -3.853 2.115 -5.324
C -4.823 2.222 -7.481
O -4.962 2.873 -8.707
N -5.522 -3.97 -1.416
C -1.726 -6.637 1.027
C -3.18 -6.953 2.63
O -2.722 1.448 4.332
C -1.173 -7.421 2.056
N -2.963 -6.383 1.442
