105
./arbalign_output/6y13_stapledHelix_conf42-aligned_to-6y13_stapledHelix.xyz
C -6.29 1.16 3.143
C -5.435 0.28 2.249
C -3.84 3.742 0.309
C -1.68 4.794 -0.609
C -4.042 2.186 0.196
C -5.971 0.803 4.594
C -6.784 1.624 5.552
C -4.801 -3.006 -0.01
C 0.406 1.071 -0.966
C -1.676 9.012 -0.913
O 0.436 3.257 1.958
N -0.778 9.036 -1.913
C 0.039 7.985 -1.736
C 1.964 4.428 -4.485
O 1.163 5.231 -6.627
C 0.374 6.079 -0.141
C -0.205 4.8 -0.752
N -1.405 7.942 -0.121
C 0.073 -0.638 -2.676
C -3.269 6.162 2.359
N -2.412 3.941 0.263
N 5.693 -1.699 -8.178
C 5.422 0.295 -6.717
C 5.575 1.939 -3.213
C 5.97 1.593 -4.625
C 5.343 3.417 -3.219
N 8.609 1.532 3.605
C 2.984 3.986 -3.661
O 5.269 -1.929 -5.871
N 5.156 0.706 -5.367
C 4.376 0.828 -7.661
C 5.452 -1.176 -6.873
O 7.018 2.127 -5.057
C 4.487 4.243 -5.444
C 4.286 3.883 -4.131
C 3.471 4.687 -6.275
C 2.192 4.784 -5.8
N 6.995 1.528 1.913
C 4.704 0.016 -2.008
C 4.265 -2.465 0.459
O 5.892 -0.225 -1.681
C 7.784 0.842 2.674
C 4.943 -3.6 1.057
C 6.918 -1.249 1.585
C 6.397 -3.625 0.837
C 7.2 -2.714 1.72
C 5.146 -5.584 4.962
C 3.987 -5.812 7.505
O 2.527 -4.338 1.79
N 4.483 -2.048 -0.891
C -0.06 -0.854 1.089
C 0.17 -1.361 -0.305
O 3.446 -1.787 1.091
C 0.743 0.399 1.317
C 0.24 -1.848 2.151
N -2.838 5.349 3.539
N 0.455 3.657 -0.416
C 0.082 1.463 0.479
C -0.155 -0.28 -1.271
O -3.533 1.846 -1.044
C -0.352 7.272 -0.585
S 1.687 -0.472 -3.315
N 4.422 1.147 -2.815
C -0.752 -2.535 -0.616
C -0.991 -2.984 4.666
O 0.388 -5.647 2.87
C 3.004 -1.467 -2.739
C 0.648 2.87 0.68
C 3.351 -4.432 2.719
C 3.669 -0.958 -1.499
N -2.089 -4.856 3.523
C -0.992 -4.425 4.324
C -3.354 -4.695 4.254
O -4.224 -5.271 0.641
C 0.33 -4.868 3.841
C 2.884 -4.986 4.005
C 3.139 -5.793 6.276
N 4.654 -3.963 2.404
C 3.793 -4.929 5.167
N 7.802 -0.578 2.566
N 1.577 -4.485 4.383
N -5.136 -1.792 0.628
C -4.572 -4.132 0.967
C -4.715 -7.249 -2.86
O -4.442 -8.511 -3.375
C -4.089 -6.101 -3.322
S -1.15 -1.833 3.316
N -5.396 1.886 0.353
C -5.944 -5.914 -1.308
C -5.644 -7.143 -1.849
O -5.701 -0.61 -1.299
C -5.325 -4.737 -1.757
C -4.413 -4.884 -2.758
C -5.693 -3.431 -1.135
C -5.152 -0.567 -0.061
C -5.674 0.549 0.802
C -4.583 5.605 1.917
C -4.582 4.204 1.498
O -2.397 5.58 -1.262
N -4.742 -3.951 2.375
C -5.809 -5.309 4.019
C -5.853 -6.357 5.065
O -3.259 -5.741 5.225
C -4.527 -5.002 3.358
N -7.295 -6.411 5.485
