105
./arbalign_output/6y13_stapledHelix_conf3-aligned_to-6y13_stapledHelix.xyz
C -5.541 1.143 0.148
C -2.952 -2.674 -2.631
C -1.317 -2.466 -5.017
C -0.824 4.844 -4.072
C -0.153 -0.645 -3.793
C -3.26 1.334 4.157
C -3.939 -1.336 3.12
C -3.472 -4.787 -1.359
C 1.074 -0.365 -2.999
C -1.834 6.697 -3.425
O 2.102 0.974 -1.455
N -1.53 5.432 -3.09
C -0.347 3.447 -3.996
C 1.076 3.381 -3.351
O 1.041 5.525 -2.442
C 0.083 5.033 1.1
C -1.162 5.333 0.277
N -3.788 2.758 -4.169
C -0.051 -2.073 -4.304
C -2.341 5.31 1.249
N -4.716 0.632 -4.03
N 1.432 2.042 -3.324
C 2.545 4.749 1.114
C 6.41 1.602 2.249
C 5.471 6.697 2.492
C 5.862 5.768 1.42
N 6.459 3.048 1.927
C 1.322 5.017 0.234
O 2.48 3.479 1.655
N -1.311 6.923 -4.65
C 4.971 4.728 0.915
C 5.044 3.408 1.595
O 4.668 2.356 0.725
C 4.405 7.691 2.213
C 4.158 8.512 3.482
C 1.124 4.268 -2.195
C -0.68 5.786 -5.069
N 3.716 5.073 0.388
C 5.541 1.335 3.427
C 3.969 -0.317 4.612
O 5.431 2.168 4.315
C 7.795 1.08 2.49
C 7.739 -1.359 1.849
C 7.69 -0.373 2.812
C 7.625 -2.66 2.291
C 7.533 -0.674 4.169
C 7.47 -2.988 3.627
C 7.423 -1.983 4.582
O 7.357 -4.307 4.051
N 1.237 3.996 -0.825
C 1.289 -1.758 1.406
C 0.247 -3.317 -0.871
O 3.395 -2.286 3.448
C 0.961 -0.703 2.47
C -2.931 0.055 4.845
N -1.551 -0.745 3.002
N -2.112 6.341 2.282
C 0.305 -3.07 -3.278
C -3.499 2.4 5.218
O -1.792 -7.263 -4.097
C 1.015 1.084 -2.419
S -2.374 -3.565 -4.044
N -4.676 1.88 -2.021
C 1.237 -4.084 -4.014
C -2.666 -1.104 3.851
O -0.052 -1.69 4.406
C 1.017 -2.673 -2.047
C 1.194 -1.25 -1.79
C -0.178 -1.083 3.341
C 3.377 0.872 5.376
N -4.139 -1.029 1.743
C -0.989 -9.871 -3.832
C -2.215 -7.821 -3.04
O -1.318 -11.701 -5.306
C 0.208 -10.39 -3.108
C -1.831 0.26 5.836
C 2.432 0.421 6.478
N 1.96 1.692 7.124
C 2.812 -1.176 4.071
N 4.812 0.131 3.544
N 2.12 -0.337 3.193
N -3.421 -5.801 -2.35
C -4.348 -7.977 -1.9
C -5.172 -7.38 -0.801
O -4.93 -1.819 3.69
C -3.051 -7.181 -2.036
S -0.159 -2.185 0.459
N -4.061 -2.599 -0.476
C -6.827 -5.841 -0.073
C -6.68 -6.269 1.226
O -3.18 -5.129 -0.179
C -6.088 -6.381 -1.088
C -5.442 -1.231 1.078
C -5.333 -2.063 -0.127
C -3.848 -3.423 -1.672
C -6.169 0.057 0.923
C -4.4 1.732 -3.43
C -5.312 0.777 -1.273
O -6.259 -2.352 -0.884
N -1.829 -9.174 -2.849
C -5.011 -7.827 0.516
C -5.771 -7.266 1.531
O -7.407 -5.75 2.29
C -1.831 -10.944 -4.425
N -3.182 -11.169 -4.059
