105
./arbalign_output/6y13_stapledHelix_conf14-aligned_to-6y13_stapledHelix.xyz-noHydrogens.xyz
C -7.905 -1.879 -1.359
C -4.727 2.221 2.752
C -2.767 7.461 -1.44
C -1.608 4.104 -4.141
C -2.129 4.596 -0.802
C -4.244 0.889 3.289
C -4.566 -0.27 2.462
C -5.013 -5.232 -2.166
C 1.1 -1.099 -4.852
C -2.76 7.404 -2.724
O -1.207 1.817 -1.953
N -2.119 8.324 -3.415
C -0.766 4.052 -2.898
C 2.065 2.844 -2.624
O 2.247 5.076 -1.66
C 1.461 -0.23 -3.625
C -0.349 2.658 -2.564
N -1.149 4.929 -1.843
C -3.598 2.899 2.028
C -3.293 6.758 -0.259
N -5.004 3.556 -5.538
N -1.995 8.641 -1.178
C 4.071 4.741 -0.143
C 7.41 2.001 -1.285
C 7.367 4.245 0.029
C 8.426 3.368 0.285
N 6.95 5.062 5.22
C 2.952 1.784 -3.18
O 4.983 5.708 1.857
N 3.497 3.495 -0.632
C 6.315 2.761 -1.633
C 4.515 4.722 1.272
O 9.482 1.325 -0.195
C 5.318 5.017 -0.997
C 6.373 4.029 -0.835
C 2.895 3.869 -1.896
C -1.62 9.138 -2.369
N 4.45 3.533 2.111
C 4.883 3.686 3.521
C 4.195 -1.859 0.781
O 4.08 -0.286 4.125
C 8.406 2.227 -0.421
C 4.449 2.623 4.433
C 6.435 3.528 3.382
C 5.377 -0.907 1.075
C 7.152 3.709 4.666
C 3.279 -1.98 1.98
C 3.17 0.137 3.425
O 4.85 2.858 5.791
N 3.078 2.308 4.504
C 1.057 1.172 4.115
C -1.432 2.561 5.143
O 1.285 -2.568 2.83
C 2.485 1.469 3.548
C -2.481 -0.079 4.775
N -1.779 -4.153 1.223
N 0.92 2.522 -1.911
C -2.403 3.176 2.928
C -2.505 2.295 4.183
O -2.644 3.54 -0.906
C -2.344 5.667 0.259
S 0.227 2.7 4.52
N -2.89 5.091 1.449
C -2.778 0.918 3.686
C -2.678 -3.514 0.267
O 0.002 -3.814 -0.11
C 3.557 -1.328 -0.46
C 2.431 0.783 -4.116
C 2.35 -3.021 1.94
C 4.664 -1.322 -1.532
N -2.134 -7.724 3.844
C -0.392 -4.288 1.028
C -1.757 -8.263 -3.744
O -1.377 -9.62 -3.884
C -0.508 -7.1 2.091
C 0.722 -6.339 1.724
C -0.887 -7.106 3.527
N 1.877 -4.221 1.536
C 0.604 -4.875 1.952
N 2.709 -0.702 2.377
N -1.976 -7.644 6.128
N -1.269 -7.62 -4.845
C -3.42 -4.67 -0.435
C -4.325 -6.536 -2.284
O -5.141 -7.551 -2.235
C -3.724 -2.635 0.883
S -3.128 -1.254 1.878
N -4.295 -4.196 -1.492
C -7.205 -4.07 -2.077
C -6.445 -5.33 -1.77
O -9.347 -0.573 -2.666
C -7.208 -3.043 -1.183
C -7.954 -3.98 -3.294
C -8.627 -2.786 -3.394
C -4.015 4.272 1.459
C -8.668 -1.756 -2.559
C -3.032 3.722 -4.056
C -3.578 3.872 -5.488
O -4.763 4.127 0.32
N -2.937 -6.717 -2.441
C -2.478 -8.128 -2.535
C -2.65 -7.973 5.113
O -3.283 -5.834 -0.104
C -1.592 -8.341 -1.323
N -3.951 -8.568 5.3
