105
./arbalign_output/6y13_stapledHelix_conf15-aligned_to-6y13_stapledHelix.xyz
C -5.26 2.826 0.392
C -4.145 3.549 1.047
C -3.575 4.746 0.272
C -1.282 2.728 -4.949
C -2.009 4.964 2.242
C -3.075 4.331 3.093
C -4.368 4.037 2.443
C -6.198 -0.614 3.029
C -0.508 2.186 -2.7
C -1.176 2.756 -6.301
O 0.775 2.262 3.207
N -1.364 1.07 -0.788
C 0.861 1.607 -6.18
C 0.751 1.582 -4.806
O -0.079 2.271 -8.333
C -1.46 6.217 2.912
C -1.047 4.836 -0.039
N -3.51 1.025 -3.274
C -1.182 0.81 -2.154
C -2.26 5.223 0.825
N -6.099 -0.581 -5.485
N 3.594 0.192 -2.684
C 4.244 1.444 -2.355
C 4.113 3.308 3.07
C 6.342 4.398 2.824
C 5.949 5.738 3.343
N 7.722 2.386 -1.198
C 3.28 2.277 -1.611
O 2.118 4.604 1.834
N 3.546 3.651 -1.275
C 2.487 4.176 -0.423
C 2.869 4.033 0.991
O 2.854 1.662 -0.487
C 6.311 2.638 -1.644
C 5.632 1.32 -1.909
C 1.824 5.443 -0.817
C -0.106 2.198 -6.963
N 3.951 3.349 1.568
C 3.243 2.167 3.421
C 4.512 -3.27 -2.212
O 2.807 1.508 2.436
C 5.639 -2.442 -2.05
C 6.71 -2.823 -1.267
C 5.531 3.235 3.358
C 5.649 -4.851 -0.749
C 5.915 3.097 4.805
C 2.495 -0.892 6.374
C 6.745 -4.013 -0.607
O 7.796 -4.428 0.185
N 2.823 1.686 4.68
C 1.74 0.682 4.602
C -0.823 0.804 1.693
O 3.255 -0.709 -0.627
C 0.825 1.035 3.487
C 0.461 -3.372 -1.96
N 0.015 0.2 2.694
N 1.588 -2.705 -1.336
C -0.628 0.447 0.293
C -2.428 3.271 3.939
O -1.701 0.104 -4.298
C -0.307 2.13 -4.114
S 0.384 5.901 0.156
N -5.144 1.501 0.006
C -2.215 0.685 2.265
C -0.607 -3.973 -1.095
O -0.116 -2.579 -2.963
C 2.319 -2.011 -2.395
C 3.398 -2.819 -3.059
C 4.577 -4.46 -1.538
C 3.085 -0.807 -1.824
N -1.454 -2.981 -0.407
C -0.003 -4.94 -0.14
C -0.657 -6.744 -2.68
O 0.234 -0.435 0.035
C 0.79 -6.065 -0.705
C 2.007 -0.681 4.926
C -0.243 -2.186 7.644
N 0.559 -3.12 7.975
C 1.521 -0.37 7.376
N 0.199 -0.879 7.36
N -1.656 -2.476 7.565
N -4.666 -2.161 0.668
C -2.547 -3.574 0.32
C -4.765 -4.461 0.152
O -3.971 -0.59 -0.738
C -3.95 -3.211 0.019
S -2.586 1.595 3.692
N -7.796 -4.474 -2.11
C -6.329 -4.358 -1.843
C -6.122 -4.538 -0.383
O -5.477 -1.006 -3.328
C -4.735 -0.807 0.258
C -5.847 0.521 2.164
C -5.495 0.332 0.763
C -2.153 0.667 -3.195
C -5.287 -0.299 -4.337
C -4.318 0.797 -4.474
C -4.936 2.061 -5.01
O -5.62 3.663 -0.718
N -7.445 -1.156 3.161
C -5.355 -1.293 3.933
C -7.381 -2.123 4.098
O -2.262 -3.913 1.643
C 0.081 -7.124 -1.454
N -6.123 -2.206 4.563
