105
./arbalign_output/6y13_stapledHelix_conf18-aligned_to-6y13_stapledHelix.xyz-noHydrogens.xyz
C -7.179 -0.688 -1.05
C -3.971 0.452 -1.139
C -3.109 4.261 -3.698
C -2.298 4.786 -2.557
C -2.563 0.361 -1.488
C -2.298 -2.16 -1.576
C -5.086 2.153 2.462
C -6.214 0.033 -0.147
C -3.245 3.831 2.957
C -3.103 6.989 -3.261
O -1.106 2.424 -0.426
N -0.377 4.589 -1.069
C -1.091 3.951 -2.201
C 1.033 4.74 -1.038
O 1.578 4.3 -2.086
C -1.14 5.124 3.267
C -1.454 2.641 -1.562
N -2.192 1.624 -2.221
C -2.016 -0.818 -2.187
C -3.436 4.228 1.511
N -4.394 0.852 -7.089
N 3.203 5.2 -0.055
C 5.369 1.327 -0.964
C 6.924 -0.103 -2.345
C 7.911 -0.799 -1.546
C 6.916 3.245 1.411
N 7.818 4.359 1.013
C 1.295 4.926 1.45
O 3.079 2.836 -0.287
N 5.523 2.707 -1.327
C 3.716 4.014 -0.577
C 5.586 0.183 -1.883
O 5.027 1.132 0.182
C 5.226 3.793 -0.397
C 5.515 3.559 1.029
C 1.789 5.344 0.099
C -1.88 6.195 -2.937
N 4.658 -0.821 -1.465
C 2.117 1.01 5.82
C 2.096 0.218 4.562
O 3.939 -1.504 0.889
C 8.706 -0.24 -0.563
C 8.134 -2.158 -1.784
C 9.654 -0.962 0.136
C 2.714 2.475 7.316
C 9.072 -2.884 -1.095
C 3.811 -4.006 2.213
C 9.861 -2.325 -0.121
O 10.822 -3.016 0.6
N 3.009 1.982 6.099
C 1.229 0.881 6.889
C 2.937 -3.783 -2.713
O 4.358 -1.825 -3.441
C 3.664 -5.051 -2.812
C -0.647 0.916 3.895
N -0.299 -0.152 4.758
N 3.151 -3.272 -0.332
C -3.949 2.589 3.365
C -1.594 -3.276 -2.331
O -4.58 1.511 -1.545
C -1.751 3.729 3.244
S -0.302 5.647 1.819
N -4.829 -0.406 -0.422
C -1.615 3.064 4.588
C -1.915 1.601 4.434
O -0.857 0.413 2.626
C 2.885 -2.351 0.728
C 3.296 -2.8 -1.638
C 3.565 -6.044 -1.699
C 4.589 -2.079 -2.044
N -0.583 -4.395 0.268
C 1.06 -1.701 3.406
C -3.063 1.376 3.531
O 0.151 -1.995 2.638
C 0.948 -0.796 4.593
C 2.605 -3.156 2.003
C 2.633 -5.859 3.463
N 2.33 -2.296 3.106
C 3.742 -4.875 3.425
N 1.645 1.8 7.769
N 2.8 -6.576 4.768
N -1.798 -4.578 -1.781
C -6.498 -0.269 1.3
C -7.914 -4.905 -3.4
O -8.396 -0.433 -1.063
C -7.197 -3.969 -2.528
S -5.222 0.354 2.41
N -5.702 -1.425 -4.367
C -7.906 -6.28 -5.351
C -9.234 -5.31 -3.163
O -7.339 -2.742 -5.25
C -7.241 -5.399 -4.51
C -7.419 -2.488 -2.835
C -9.196 -6.674 -5.117
C -3.728 -1.754 -5.772
C -6.853 -2.247 -4.192
C -5.115 -1.157 -5.668
C -4.979 0.292 -5.923
O -5.431 1.064 -5.007
N -6.621 -1.686 -1.885
C -1.324 -5.077 -0.574
C -9.873 -6.188 -4.015
O -9.796 -7.572 -6.027
C 2.149 -6.548 -1.456
N -1.645 -6.43 -0.219
