105
./arbalign_output/6y13_stapledHelix_conf40-aligned_to-6y13_stapledHelix.xyz
C -8.309 0.685 -0.704
C -4.401 -0.901 -3.525
C -3.21 -0.021 -3.957
C -1.338 4.234 -5.333
C -3.63 5.363 2.693
C -3.887 3.025 3.682
C -3.842 -2.323 -3.673
C -6.19 -0.504 -0.121
C -0.133 -0.148 -1.859
C -1.697 5.44 -4.485
O 0.685 1.067 -4.767
N -0.265 2.523 -3.359
C 0.497 3.647 -3.843
C 1.962 3.605 -3.655
O 2.62 4.646 -3.867
C -0.056 3.23 2.19
C -0.822 -0.007 -3.365
N -3.655 5.884 1.458
C -3.821 3.984 2.625
C -3.857 4.879 0.589
N -2.151 -0.2 -3.058
N 2.743 2.499 -3.261
C 4.237 2.559 -3.144
C 4.746 1.351 -2.525
C 5.752 -0.591 -0.415
C 7.432 5.267 -1.907
N 7.427 5.358 -0.469
C 2.609 2.763 0.507
O 5.899 0.907 -2.676
N 7.923 6.237 -2.63
C 4.796 2.739 -4.522
C 4.411 -0.761 -1.166
O 6.225 0.534 -0.192
C 6.905 4.04 -3.956
C 6.27 2.881 -4.654
C 0.142 3.931 -5.3
C 0.821 5.215 -5.708
N 6.88 4.081 -2.541
C 7.638 -1.837 0.684
C 7.251 -4.673 -1.094
O 6.213 -2.847 2.335
C 8.579 -2.834 -0.0
C 7.343 -2.366 2.041
C 8.023 -4.208 -0.016
C 8.213 -5.111 1.0
C 7.834 -1.71 5.386
C 7.941 -2.873 4.381
C 8.885 -3.859 4.929
O 9.913 -4.206 4.277
N 6.353 -1.825 -0.03
C 0.995 1.403 3.444
C -0.325 3.114 4.716
O -0.123 2.076 5.626
C 2.116 1.275 2.406
C -2.972 1.379 5.229
N -1.719 3.378 4.502
N 3.959 0.504 -1.63
C 0.268 2.294 1.026
C -0.863 1.368 0.725
O -2.853 -0.38 -5.241
C -0.168 1.187 -3.801
S -1.15 0.935 -0.944
N -3.954 3.737 1.305
C -2.559 2.336 4.109
C -2.682 -2.496 0.111
O 6.417 -8.122 -0.079
C 0.5 2.83 3.501
C 1.638 1.711 1.082
C 2.725 -0.046 2.595
C 3.537 -1.344 -0.1
N -3.435 0.069 4.897
C -1.953 -2.01 6.559
C -4.101 -0.821 5.811
O -2.92 1.661 6.416
C -1.185 -2.381 7.855
C 6.73 -5.963 -1.101
C 7.719 -6.388 1.035
N 8.628 -4.418 6.204
C 6.955 -6.823 -0.048
N 8.31 -2.353 3.081
N 0.026 -3.118 7.393
N -3.918 -4.676 -3.624
C -3.457 -3.738 0.367
C -4.9 -3.483 0.837
O -5.828 0.004 2.13
C -6.722 -1.134 2.114
S 3.869 -0.702 1.489
N -4.816 -0.59 -2.197
C -4.735 -3.435 -3.337
C -5.91 -2.251 2.856
O -6.791 -1.691 -2.155
C -6.012 -0.984 -1.531
C -9.371 0.545 0.201
C -10.669 0.373 -0.217
C -6.935 0.839 -0.186
C -10.978 0.331 -1.554
C -8.648 0.64 -2.035
C -9.964 0.466 -2.452
O -12.303 0.154 -1.982
N -6.954 -1.357 0.735
C -4.762 -2.687 2.082
C -4.712 -2.022 5.068
O -3.725 -2.858 4.592
C -3.189 -1.296 6.908
N -5.562 -1.522 4.033
