105
./arbalign_output/6y13_stapledHelix_conf10-aligned_to-6y13_stapledHelix.xyz
C -3.968 -0.303 -2.059
C -2.467 -3.873 -5.267
C -1.788 5.373 -2.646
C 1.014 -1.205 -9.851
C -2.159 -1.375 -5.356
C -1.311 -4.614 -5.51
C -1.035 -5.777 -4.821
C -3.031 -5.554 -3.603
C -1.685 3.929 2.931
C -0.235 0.629 -7.845
O -3.788 0.479 0.097
N 0.1 2.302 -6.122
C 0.099 4.624 -4.044
C 1.195 3.664 -4.413
O 3.413 5.183 -4.053
C 0.682 2.308 -4.82
C -0.742 4.262 -2.877
N -2.597 4.976 -1.483
C -3.02 0.435 -1.096
C -0.473 1.014 -6.42
N -2.56 -0.271 -6.152
N 2.145 3.502 -3.287
C 4.386 4.053 -2.149
C 3.75 0.517 -1.366
C 3.357 2.716 -0.331
C 4.671 5.329 -1.379
N 5.888 8.006 -3.516
C 0.649 5.313 3.773
O -0.019 1.691 -3.822
N 3.915 7.413 -2.688
C 3.333 4.283 -3.19
C 3.157 1.195 -0.156
O 3.916 3.105 0.933
C 6.046 6.904 -2.772
C 4.817 6.522 -2.248
C 4.572 8.304 -3.454
C 1.575 0.158 -9.525
N 4.252 2.907 -1.38
C 3.777 0.616 1.061
C 3.576 -1.598 -0.134
O 1.417 0.64 3.999
C 4.368 -0.747 0.823
C 4.319 -2.909 -0.406
C 4.815 -1.444 2.036
C 1.859 0.921 7.424
C 2.815 0.231 8.359
C 2.079 -0.583 9.399
C 2.496 -2.098 11.33
O 2.394 -1.872 6.558
N -0.264 1.394 2.098
C 0.945 0.058 6.667
C -0.637 1.733 3.477
O -2.256 0.39 1.873
C 0.329 1.04 4.41
C 0.129 -1.019 0.285
N 0.039 0.816 5.784
N -1.882 -0.387 -0.814
C -0.824 0.181 -0.091
C -1.2 0.61 1.282
O -2.245 -2.219 -3.124
C 1.267 0.563 -8.101
S 0.786 -1.92 -1.048
N -3.468 -0.361 -3.398
C -0.617 3.222 3.727
C -2.51 -4.414 2.439
O 0.776 -5.139 3.674
C 2.025 -1.152 -2.077
C 0.754 3.818 3.49
C 2.353 -2.738 3.116
C 3.365 -0.929 -1.465
N 0.906 -1.819 4.895
C -1.926 -4.757 3.799
C -2.962 -4.792 4.845
O -2.312 -4.16 8.604
C -3.534 -4.131 8.327
C 0.428 -3.982 4.046
C 1.499 -3.023 4.353
N 3.353 -2.792 12.239
C 1.447 -1.187 6.093
N 3.003 -1.266 10.291
N 1.234 -2.216 11.439
N -0.96 -3.73 4.127
C -3.209 -6.473 1.2
C -4.868 -5.116 2.22
O -6.537 -7.944 0.566
C -3.515 -5.348 1.948
S 3.716 -1.648 3.405
N -7.641 -0.417 -2.513
C -5.855 -5.972 1.764
C -5.531 -7.105 1.011
O -1.658 -7.431 -3.139
C -1.897 -6.266 -3.851
C -3.32 -4.391 -4.282
C -5.388 0.116 -1.926
C -2.606 -1.35 -3.943
C -6.255 -0.878 -2.686
C -1.912 0.971 -5.984
C -2.779 -2.626 -5.993
O -2.616 1.965 -6.721
N -3.046 -3.953 5.958
C -4.89 -2.714 6.878
C -4.187 -7.328 0.745
O -3.876 -5.678 4.72
C -4.096 -4.021 6.97
N -4.445 -4.211 9.415
