21
./arbalign_output/7-BI2-aligned_to-7-BI1.xyz
O 0.02386 0.0071 -0.3392
H -0.49234 -0.5842 0.2559
H 0.53226 0.5957 0.2666
O -3.84724 -0.0608 0.247
H -4.59054 -0.4236 -0.2495
H -3.35524 0.4966 -0.3997
O -2.15434 1.3225 -1.4145
H -1.31524 0.9032 -1.1113
H -2.01794 2.2682 -1.2769
O 2.25326 -1.1637 -1.4421
H 1.38166 -0.8057 -1.1521
H 2.28866 -0.9994 -2.3924
O -1.68104 -1.4249 1.2718
H -1.79084 -2.3818 1.2162
H -2.54334 -1.0492 0.9817
O 3.85936 0.1405 0.3747
H 4.36976 -0.5345 0.8382
H 3.39306 -0.3481 -0.342
O 1.65226 1.5081 1.2908
H 2.51316 1.059 1.1305
H 1.52076 1.475 2.2462
