23
./arbalign_output/8w4x_sugars_model_1_chainC_pH74-aligned_to-8w4x_BGCGLC.xyz
C -12.019 8.919 -7.01
C -11.361 7.552 -7.099
C -11.711 6.701 -5.881
C -11.394 7.454 -4.592
C -11.985 8.854 -4.609
C -11.542 9.642 -3.381
O -11.648 9.739 -8.089
O -11.811 6.906 -8.283
O -10.984 5.468 -5.932
O -11.984 6.746 -3.502
O -11.6 9.567 -5.787
O -12.182 10.904 -3.339
C -11.842 5.776 -1.363
C -10.967 4.935 -0.425
C -10.443 3.725 -1.164
C -9.709 4.156 -2.446
C -9.21 2.989 -3.259
C -11.089 6.103 -2.645
O -12.246 6.978 -0.713
O -11.738 4.541 0.707
O -9.567 2.98 -0.339
O -10.575 4.935 -3.272
O -8.485 3.462 -4.376
