12
./arbalign_output/8w4x_sugars_model_46_chainB_pH74-aligned_to-8w4x_BGC.xyz
C 3.667 4.143 4.881
C 3.399 3.12 7.156
C 1.485 3.349 5.525
C 1.889 3.317 7.016
C 0.009 3.641 5.345
C 4.144 4.171 6.33
O 4.298 5.151 4.12
O 5.543 3.943 6.36
O 3.792 3.221 8.512
O 1.186 2.293 7.679
O 2.246 4.348 4.804
O -0.292 4.944 5.819
