12
./arbalign_output/8w4x_BGC_conf35-aligned_to-8w4x_BGC.xyz
C 1.829 1.025 0.726
C 1.585 1.237 -0.738
C 0.732 0.111 -1.339
C -0.431 -0.064 -0.424
C -1.548 -0.879 -1.003
C 0.667 0.432 1.443
O 1.034 0.056 2.725
O 2.032 2.307 1.289
O 2.753 1.329 -1.475
O 0.44 0.482 -2.623
O 0.082 -0.635 0.755
O -1.18 -2.159 -1.332
