23
./arbalign_output/8w4x_BGCGLC_conf10-aligned_to-8w4x_BGCGLC.xyz-noHydrogens.xyz
C -1.522 0.769 -3.379
C -1.855 -0.622 -2.928
C -1.376 -0.889 -1.506
C -0.391 0.261 -1.238
C -1.276 1.473 -1.173
C -0.645 2.667 -0.508
O -2.435 1.053 -4.423
O -3.244 -0.777 -3.015
O -0.803 -2.128 -1.368
O 0.347 0.028 -0.093
O -1.72 1.756 -2.445
O 0.454 3.135 -1.221
C 2.53 0.901 0.289
C 3.412 0.544 1.433
C 3.286 -0.917 1.849
C 3.276 -1.667 0.536
C 3.416 -3.144 0.83
C 1.713 -0.164 -0.318
O 3.32 1.583 -0.666
O 3.233 1.383 2.555
O 4.367 -1.314 2.614
O 2.072 -1.457 -0.059
O 3.344 -3.87 -0.359
