12
./arbalign_output/8w4x_sugars_model_25_chainB_pH74-aligned_to-8w4x_BGC.xyz
C -4.077 5.395 7.358
C -4.176 4.096 8.165
C -5.301 3.222 7.615
C -5.135 3.016 6.096
C -6.291 2.237 5.496
C -3.939 5.089 5.873
O -3.909 6.271 5.107
O -2.963 6.166 7.777
O -4.397 4.4 9.527
O -5.331 1.974 8.265
O -5.029 4.285 5.405
O -7.486 2.991 5.59
