12
./arbalign_output/8w4x_sugars_model_44_chainB_pH74-aligned_to-8w4x_BGC.xyz
C -10.661 -1.896 0.634
C -9.211 -2.333 0.795
C -8.851 -2.301 -1.574
C -10.302 -1.859 -1.839
C -8.295 -3.14 -2.704
C -10.84 -1.082 -0.644
O -12.208 -0.779 -0.823
O -11.045 -1.138 1.768
O -9.054 -3.162 1.928
O -8.761 -3.066 -0.354
O -10.364 -1.087 -3.014
O -9.016 -4.352 -2.81
