23
./arbalign_output/8w4x_BGCGLC_conf44-aligned_to-8w4x_BGCGLC.xyz
C -1.511 -1.207 2.857
C -2.407 -0.254 2.151
C -1.774 0.979 1.606
C -0.28 0.93 1.464
C 0.316 0.117 2.594
C 0.167 0.722 3.94
O -1.946 -2.511 2.605
O -3.152 -0.943 1.166
O -2.135 2.097 2.368
O 0.179 0.345 0.331
O -0.181 -1.169 2.48
O 0.696 2.028 3.976
C 2.314 0.471 -0.79
C 2.568 -0.048 -2.153
C 1.472 0.146 -3.155
C 0.14 0.264 -2.501
C -0.299 -1.025 -1.895
C 0.985 1.06 -0.504
O 3.337 1.391 -0.459
O 2.966 -1.407 -2.146
O 1.674 1.307 -3.93
O 0.208 1.339 -1.633
O -0.298 -1.974 -2.944
