23
./arbalign_output/8w4x_BGCGLC_conf1-aligned_to-8w4x_BGCGLC.xyz-noHydrogens.xyz
C 3.152 0.816 -1.065
C 1.819 0.346 -1.605
C 1.693 -1.108 -1.134
C 1.414 -0.993 0.356
C 2.544 -0.218 0.934
C 3.228 -1.094 1.983
O 3.138 2.191 -1.006
O 0.78 1.137 -1.101
O 2.933 -1.691 -1.343
O 0.163 -0.435 0.47
O 3.534 0.174 0.085
O 3.847 -2.204 1.451
C -1.31 -0.787 2.292
C -2.542 0.049 2.233
C -2.955 0.405 0.828
C -2.814 -0.731 -0.128
C -2.761 -0.085 -1.516
C -0.813 -1.283 0.969
O -1.593 -1.904 3.087
O -2.369 1.258 2.907
O -4.315 0.754 0.888
O -1.723 -1.516 -0.001
O -3.885 0.726 -1.652
