12
./arbalign_output/8w4x_BGC_conf19-aligned_to-8w4x_BGC.xyz
C -1.315 -0.254 -2.216
C -0.625 -1.574 -2.056
C 0.242 -1.611 -0.805
C -0.443 -0.867 0.301
C 0.464 -0.912 1.534
C -0.63 0.759 -1.337
O 0.673 0.993 -1.758
O -2.654 -0.297 -1.829
O 0.206 -1.846 -3.138
O 0.412 -2.934 -0.423
O -0.713 0.447 0.007
O -0.182 -0.302 2.629
