23
./arbalign_output/8w4x_sugars_model_39_chainC_pH74-aligned_to-8w4x_BGCGLC.xyz
C 1.186 13.759 -7.363
C 0.366 12.473 -7.432
C -0.416 12.266 -6.139
C 0.513 12.337 -4.931
C 1.389 13.576 -4.974
C 2.404 13.55 -3.836
O 1.961 13.943 -8.52
O -0.527 12.547 -8.536
O -1.09 11.002 -6.174
O -0.274 12.418 -3.744
O 2.073 13.692 -6.221
O 3.103 14.771 -3.747
C -0.734 11.711 -1.546
C -0.861 10.49 -0.63
C -1.725 9.446 -1.302
C -1.166 9.102 -2.696
C -2.003 8.097 -3.446
C -0.25 11.293 -2.93
O 0.157 12.665 -0.972
O -1.419 10.887 0.618
O -1.802 8.277 -0.509
O -1.072 10.28 -3.487
O -1.388 7.788 -4.683
