12
./arbalign_output/8w4x_sugars_model_19_chainB_pH74-aligned_to-8w4x_BGC.xyz
C -3.717 9.309 -2.309
C -3.635 7.921 -1.665
C -3.196 6.865 -3.781
C -3.247 8.22 -4.523
C -3.646 5.711 -4.662
C -2.861 9.358 -3.578
O -3.029 10.615 -4.214
O -3.288 10.293 -1.37
O -4.484 7.833 -0.536
O -4.028 6.896 -2.599
O -2.392 8.186 -5.647
O -4.996 5.875 -5.047
