12
./arbalign_output/8w4x_sugars_model_28_chainB_pH74-aligned_to-8w4x_BGC.xyz
C -2.783 4.851 5.359
C -3.434 3.922 6.387
C -4.675 3.266 5.791
C -4.337 2.587 4.448
C -5.562 1.997 3.78
C -2.518 4.103 4.056
O -1.985 4.966 3.076
O -1.555 5.367 5.847
O -3.766 4.663 7.545
O -5.223 2.318 6.679
O -3.726 3.527 3.537
O -6.48 3.023 3.443
