12
./arbalign_output/8w4x_BGC_conf33-aligned_to-8w4x_BGC.xyz
C -1.714 0.639 0.324
C -1.97 -0.849 0.195
C -0.742 -1.49 -0.33
C 0.533 -0.74 -0.211
C 1.039 -0.248 -1.575
C -0.532 0.736 1.249
O -0.318 2.02 1.721
O -2.794 1.302 0.895
O -3.041 -1.05 -0.674
O -0.676 -2.774 0.252
O 0.619 0.225 0.744
O 2.372 0.142 -1.495
