12
./arbalign_output/8w4x_BGC_conf8-aligned_to-8w4x_BGC.xyz
C 1.42 1.182 -0.108
C 1.037 1.357 -1.571
C 0.393 0.015 -1.914
C -0.909 0.021 -1.191
C -1.446 -1.401 -1.179
C 0.213 0.826 0.691
O 0.498 -0.246 1.549
O 2.125 2.272 0.382
O 2.122 1.617 -2.378
O 0.25 -0.146 -3.279
O -0.957 0.659 0.003
O -1.305 -1.871 -2.496
