12
./arbalign_output/8w4x_sugars_model_17_chainB_pH74-aligned_to-8w4x_BGC.xyz
C 6.151 10.836 -1.831
C 5.152 10.061 -0.983
C 3.797 9.545 -2.893
C 4.744 10.31 -3.836
C 2.364 9.565 -3.381
C 6.16 10.315 -3.27
O 7.007 11.132 -4.055
O 7.44 10.715 -1.254
O 5.074 10.597 0.32
O 3.838 10.104 -1.561
O 4.717 9.73 -5.123
O 1.915 10.893 -3.532
