12
./arbalign_output/8w4x_BGC_conf45-aligned_to-8w4x_BGC.xyz-noHydrogens.xyz
C 0.543 1.337 -0.628
C -0.498 0.385 -0.112
C 0.104 -0.724 0.704
C 1.485 -1.09 0.207
C 1.308 -1.884 -1.062
C 1.727 1.223 0.334
O 2.675 2.202 -0.017
O 0.082 2.653 -0.697
O -1.219 -0.086 -1.197
O 0.183 -0.423 2.065
O 2.315 -0.005 0.094
O 0.44 -2.955 -0.797
