12
./arbalign_output/8w4x_sugars_model_10_chainB_pH74-aligned_to-8w4x_BGC.xyz
C -10.66 -1.422 3.225
C -9.263 -1.986 3.032
C -9.772 -2.73 0.812
C -11.208 -2.189 0.909
C -9.674 -3.942 -0.093
C -11.268 -1.021 1.884
O -12.603 -0.602 2.082
O -10.588 -0.312 4.106
O -8.729 -2.433 4.262
O -9.278 -3.091 2.12
O -11.661 -1.804 -0.366
O -10.421 -5.018 0.455
