23
./arbalign_output/8w4x_BGCGLC_conf15-aligned_to-8w4x_BGCGLC.xyz-noHydrogens.xyz
C -2.408 1.362 2.805
C -3.16 0.884 1.613
C -2.306 0.653 0.38
C -0.868 0.865 0.848
C -0.861 2.282 1.359
C 0.486 2.92 1.355
O -3.359 1.845 3.718
O -4.288 1.665 1.347
O -2.518 -0.56 -0.227
O 0.047 0.761 -0.128
O -1.517 2.393 2.579
O 0.31 4.274 1.649
C 2.421 0.224 -0.367
C 3.302 -1.026 -0.195
C 2.83 -2.138 -1.067
C 1.327 -2.291 -0.955
C 0.916 -3.057 -2.199
C 1.042 -0.174 0.004
O 3.035 1.171 0.412
O 4.634 -0.722 -0.452
O 3.404 -3.334 -0.61
O 0.657 -1.11 -1.003
O 1.276 -2.308 -3.341
