12
./arbalign_output/8w4x_BGC_conf21-aligned_to-8w4x_BGC.xyz
C 0.973 0.806 -0.653
C 0.741 -0.177 0.467
C 0.806 -1.555 -0.188
C -0.302 -1.624 -1.179
C -1.366 -2.54 -0.554
C -0.173 0.673 -1.608
O -0.998 1.78 -1.407
O 2.134 0.432 -1.32
O -0.523 -0.088 1.037
O 2.043 -1.773 -0.792
O -0.947 -0.443 -1.428
O -2.382 -2.668 -1.498
