12
./arbalign_output/8w4x_sugars_model_5_chainB_pH74-aligned_to-8w4x_BGC.xyz
C -4.373 3.962 6.908
C -3.939 2.694 7.65
C -4.32 1.451 6.841
C -3.776 1.556 5.397
C -4.202 0.382 4.536
C -3.816 3.964 5.486
O -4.267 5.094 4.767
O -3.923 5.128 7.593
O -4.542 2.665 8.934
O -3.829 0.281 7.458
O -4.222 2.784 4.769
O -5.606 0.407 4.324
