12
./arbalign_output/8w4x_sugars_model_42_chainB_pH74-aligned_to-8w4x_BGC.xyz
C 5.874 10.288 -2.249
C 4.357 10.084 -2.262
C 3.992 8.811 -3.016
C 4.639 8.798 -4.411
C 4.374 7.495 -5.128
C 6.417 10.236 -3.675
O 7.827 10.386 -3.701
O 6.211 11.541 -1.659
O 3.883 10.021 -0.926
O 2.588 8.709 -3.144
O 6.068 9.003 -4.323
O 5.044 7.46 -6.386
