23
./arbalign_output/8w4x_sugars_model_33_chainC_pH74-aligned_to-8w4x_BGCGLC.xyz
C -1.233 15.212 -4.35
C -2.546 13.216 -4.119
C -3.43 12.286 -4.932
C -3.265 13.761 -2.878
C -1.915 15.828 -3.138
C -2.378 14.748 -2.167
O -0.89 16.199 -5.286
O -2.123 14.285 -4.976
O -2.76 11.864 -6.103
O -3.622 12.731 -1.944
O -3.082 15.339 -1.075
O -0.994 16.698 -2.507
C -5.634 12.257 -0.689
C -5.188 11.109 0.228
C -5.249 9.787 -0.492
C -4.384 9.876 -1.741
C -4.352 8.561 -2.507
C -4.946 12.23 -2.052
O -5.385 13.51 -0.057
O -6.025 11.07 1.384
O -4.835 8.729 0.336
O -4.855 10.916 -2.607
O -3.347 8.625 -3.511
