12
./arbalign_output/8w4x_BGC_conf30-aligned_to-8w4x_BGC.xyz-noHydrogens.xyz
C 1.24 0.178 -0.562
C -0.246 0.366 -0.85
C -0.843 0.516 0.54
C -0.246 1.672 1.244
C -0.242 1.343 2.738
C 1.707 1.504 -0.054
O 3.036 1.416 0.393
O 1.95 -0.209 -1.673
O -0.79 -0.665 -1.565
O -2.226 0.676 0.403
O 0.988 2.078 0.914
O 0.114 2.533 3.393
