12
./arbalign_output/8w4x_sugars_model_14_chainB_pH74-aligned_to-8w4x_BGC.xyz
C -9.636 3.45 3.88
C -9.488 2.847 5.279
C -9.907 1.374 5.262
C -9.139 0.605 4.159
C -9.589 -0.841 4.05
C -8.873 2.612 2.853
O -9.06 3.118 1.548
O -9.141 4.781 3.848
O -10.284 3.58 6.195
O -9.668 0.771 6.513
O -9.318 1.243 2.871
O -10.907 -0.918 3.532
