23
./arbalign_output/8w4x_BGCGLC_conf38-aligned_to-8w4x_BGCGLC.xyz-noHydrogens.xyz
C -2.565 -0.029 4.111
C -1.986 -1.329 3.679
C -0.89 -1.241 2.668
C -1.166 0.05 1.891
C -0.875 1.096 2.946
C -0.62 2.45 2.33
O -2.734 -0.112 5.505
O -1.528 -2.11 4.743
O -0.785 -2.34 1.836
O -0.382 0.149 0.761
O -1.885 1.1 3.846
O -1.694 2.971 1.654
C -0.898 1.415 -1.192
C -0.059 1.192 -2.44
C -0.712 0.123 -3.255
C -1.165 -1.03 -2.427
C -0.632 -2.366 -2.96
C -1.135 0.148 -0.418
O -2.092 1.985 -1.632
O 1.237 0.923 -2.056
O -1.791 0.717 -3.917
O -0.744 -0.982 -1.117
O 0.758 -2.368 -2.857
