23
./arbalign_output/8w4x_BGCGLC_conf32-aligned_to-8w4x_BGCGLC.xyz
C 3.214 -1.913 1.837
C 3.547 -0.486 1.498
C 2.282 0.307 1.139
C 1.708 -0.394 -0.067
C 1.677 -1.899 0.161
C 2.637 -2.621 -0.762
O 3.268 -2.105 3.237
O 4.074 0.126 2.65
O 2.702 1.574 0.781
O 0.505 0.085 -0.505
O 1.912 -2.238 1.476
O 2.455 -3.983 -0.597
C -0.311 -0.21 -2.666
C -1.756 0.025 -2.308
C -1.988 1.498 -2.578
C -1.0 2.4 -1.917
C -1.613 2.773 -0.559
C 0.544 0.631 -1.786
O -0.135 0.15 -3.988
O -2.041 -0.241 -0.976
O -1.963 1.657 -3.967
O 0.227 1.941 -1.689
O -0.866 3.75 0.09
