23
./arbalign_output/8w4x_sugars_model_48_chainC_pH74-aligned_to-8w4x_BGCGLC.xyz
C -14.259 2.098 -9.962
C -14.357 0.796 -10.751
C -13.256 -0.173 -10.335
C -11.907 0.483 -10.467
C -11.886 1.807 -9.686
C -10.573 2.553 -9.843
O -15.207 3.032 -10.419
O -15.633 0.23 -10.527
O -13.31 -1.361 -11.133
O -8.676 0.11 -10.026
O -12.953 2.66 -10.123
O -10.723 3.923 -9.567
C -7.098 0.235 -8.196
C -8.205 -0.579 -8.856
C -7.724 -1.989 -9.205
C -8.847 -2.754 -9.876
C -9.386 -1.988 -11.096
C -9.714 -0.528 -10.784
O -7.629 1.447 -7.68
O -7.28 -2.658 -8.046
O -8.386 -4.041 -10.283
O -10.916 -0.45 -10.012
O -10.547 -2.65 -11.605
