23
./arbalign_output/8w4x_sugars_model_34_chainC_pH74-aligned_to-8w4x_BGCGLC.xyz
C -0.531 14.776 -6.082
C -1.892 13.327 -4.715
C -3.354 12.972 -4.477
C -1.163 13.759 -3.425
C 0.22 15.271 -4.851
C 0.244 14.21 -3.749
O -0.622 15.784 -7.065
O -1.857 14.375 -5.701
O -3.957 12.497 -5.675
O -1.069 12.704 -2.444
O 1.538 15.616 -5.243
O 0.877 14.723 -2.572
C -1.643 12.531 -0.072
C -1.15 11.133 0.357
C -2.139 10.057 -0.04
C -2.368 10.141 -1.547
C -3.297 9.041 -2.039
C -2.153 12.591 -1.522
O -0.598 13.487 0.119
O -0.948 11.111 1.771
O -1.697 8.771 0.337
O -2.907 11.427 -1.908
O -3.206 8.933 -3.459
