23
./arbalign_output/8w4x_sugars_model_43_chainC_pH74-aligned_to-8w4x_BGCGLC.xyz
C -11.083 10.566 0.219
C -10.762 8.248 0.766
C -11.415 6.892 0.585
C -10.505 8.573 2.243
C -10.855 10.969 1.67
C -9.946 9.967 2.378
O -11.996 11.434 -0.406
O -11.612 9.237 0.169
O -11.636 6.615 -0.78
O -9.583 7.651 2.856
O -10.285 12.265 1.691
O -9.806 10.311 3.759
C -9.59 6.393 4.933
C -8.169 5.809 4.971
C -8.055 4.565 4.121
C -8.545 4.869 2.705
C -8.472 3.634 1.824
C -10.157 6.524 3.519
O -9.596 7.673 5.572
O -7.819 5.496 6.317
O -6.726 4.094 4.091
O -9.894 5.364 2.717
O -8.698 3.999 0.47
