23
./arbalign_output/8w4x_BGCGLC_conf4-aligned_to-8w4x_BGCGLC.xyz-noHydrogens.xyz
C -2.413 -2.112 1.937
C -2.024 -0.704 2.243
C -0.529 -0.566 2.437
C 0.167 -1.337 1.333
C -0.286 -2.76 1.31
C 0.851 -3.636 1.811
O -2.99 -2.214 0.665
O -2.441 0.116 1.176
O -0.216 -1.185 3.64
O -0.003 -0.689 0.092
O -1.38 -3.019 2.109
O 1.173 -3.368 3.138
C 1.467 -0.833 -1.772
C 0.183 -0.72 -2.559
C -0.451 0.609 -2.238
C 0.54 1.608 -1.696
C -0.241 2.836 -1.275
C 1.208 -0.214 -0.415
O 2.418 -0.077 -2.482
O -0.666 -1.748 -2.153
O -0.961 1.136 -3.426
O 1.22 1.166 -0.592
O 0.599 3.845 -0.807
