23
./arbalign_output/8w4x_sugars_model_12_chainC_pH74-aligned_to-8w4x_BGCGLC.xyz
C 5.221 12.114 0.65
C 4.108 10.434 1.964
C 2.883 10.238 2.85
C 5.41 10.027 2.663
C 6.562 11.749 1.282
C 6.58 10.292 1.746
O 5.169 13.485 0.344
O 4.156 11.811 1.561
O 1.718 10.293 2.053
O 5.412 8.636 3.044
O 7.581 11.977 0.332
O 7.809 10.004 2.414
C 5.171 8.386 4.433
C 5.861 5.923 4.54
C 3.514 6.613 4.128
C 4.415 5.591 4.838
C 2.026 6.329 4.333
C 6.186 7.371 4.951
O 7.495 7.723 4.494
O 6.72 5.018 5.226
O 4.09 4.278 4.446
O 3.816 7.945 4.575
O 1.705 6.384 5.7
