12
./arbalign_output/8w4x_BGC_conf14-aligned_to-8w4x_BGC.xyz-noHydrogens.xyz
C -0.987 -0.92 1.411
C -2.088 -0.212 0.647
C -1.451 0.434 -0.546
C -0.258 -0.249 -1.1
C 0.956 0.675 -0.948
C -0.478 -1.986 0.449
O 0.359 -2.873 1.126
O -1.623 -1.554 2.474
O -2.687 0.712 1.488
O -2.487 0.602 -1.493
O 0.002 -1.52 -0.726
O 2.035 0.24 -1.728
