12
./arbalign_output/8w4x_sugars_model_41_chainB_pH74-aligned_to-8w4x_BGC.xyz
C 2.7 8.191 -2.735
C 3.2 6.985 -3.524
C 2.046 6.051 -3.855
C 0.933 6.823 -4.565
C -0.255 5.941 -4.871
C 1.549 8.863 -3.468
O 1.021 9.929 -2.707
O 3.74 9.132 -2.545
O 4.188 6.306 -2.769
O 2.485 4.99 -4.664
O 0.493 7.941 -3.767
O -1.274 6.679 -5.543
