12
./arbalign_output/8w4x_BGC_conf34-aligned_to-8w4x_BGC.xyz
C 1.513 1.392 -0.285
C 0.983 0.672 -1.497
C 0.267 -0.582 -1.002
C -0.994 -0.102 -0.33
C -1.593 -1.092 0.624
C 0.505 1.235 0.83
O 0.874 0.151 1.615
O 1.696 2.749 -0.487
O 2.028 0.365 -2.348
O 0.027 -1.368 -2.127
O -0.78 1.076 0.364
O -1.864 -2.326 0.069
