12
./arbalign_output/8w4x_BGC_conf7-aligned_to-8w4x_BGC.xyz-noHydrogens.xyz
C 0.146 2.825 0.299
C 0.004 2.04 1.597
C -0.406 0.601 1.317
C -1.203 0.593 0.054
C -2.041 -0.651 -0.109
C -1.168 2.787 -0.435
O -1.835 3.977 -0.204
O 1.172 2.318 -0.504
O -0.927 2.694 2.382
O 0.748 -0.141 1.13
O -1.975 1.724 -0.018
O -3.018 -0.767 0.866
