23
./arbalign_output/8w4x_BGCGLC_conf5-aligned_to-8w4x_BGCGLC.xyz-noHydrogens.xyz
C -2.831 2.974 -0.747
C -2.166 2.592 -2.03
C -0.907 1.811 -1.857
C -0.422 1.776 -0.425
C -0.759 3.015 0.318
C 0.191 4.112 -0.184
O -3.622 1.881 -0.333
O -3.077 1.804 -2.743
O 0.04 2.436 -2.7
O -0.681 0.576 0.178
O -2.034 3.484 0.225
O 0.082 5.276 0.567
C 0.363 -0.431 1.992
C -0.593 -1.521 2.401
C -0.139 -2.812 1.763
C 0.632 -2.531 0.503
C 0.402 -3.731 -0.42
C 0.357 -0.227 0.49
O 1.646 -0.64 2.482
O -1.834 -1.222 1.842
O 0.747 -3.405 2.675
O 0.205 -1.431 -0.2
O 0.792 -4.925 0.164
