12
./arbalign_output/8w4x_sugars_model_48_chainB_pH74-aligned_to-8w4x_BGC.xyz
C 0.95 7.651 5.342
C 0.418 7.623 7.803
C -0.739 6.131 6.135
C -0.891 6.913 7.453
C -2.029 5.442 5.721
C 0.884 8.481 6.624
O 1.272 8.46 4.228
O 2.17 9.04 6.881
O 0.256 8.44 8.946
O -1.285 6.038 8.485
O -0.31 7.008 5.071
O -3.075 6.38 5.578
