23
./arbalign_output/8w4x_sugars_model_24_chainC_pH74-aligned_to-8w4x_BGCGLC.xyz
C -7.076 9.979 -7.235
C -6.961 7.639 -6.745
C -6.998 6.29 -7.439
C -8.019 7.754 -5.646
C -8.142 10.174 -6.171
C -7.997 9.141 -5.062
O -7.263 10.874 -8.299
O -7.154 8.645 -7.741
O -5.887 6.157 -8.301
O -7.81 6.814 -4.582
O -9.053 9.29 -4.112
O -8.012 11.48 -5.652
C -9.263 5.317 -3.364
C -8.329 4.826 -2.251
C -7.445 3.706 -2.728
C -6.7 4.143 -3.983
C -5.824 3.022 -4.519
C -8.537 5.596 -4.674
O -9.934 6.502 -2.932
O -9.106 4.377 -1.146
O -6.529 3.325 -1.725
O -7.61 4.56 -5.008
O -4.99 3.523 -5.554
