23
./arbalign_output/8w4x_sugars_model_31_chainC_pH74-aligned_to-8w4x_BGCGLC.xyz
C 0.516 11.07 -7.604
C -0.788 9.189 -6.871
C -1.655 8.066 -7.417
C -1.533 10.032 -5.834
C -0.186 11.977 -6.605
C -0.665 11.184 -5.391
O 0.869 11.779 -8.766
O -0.361 10.001 -7.976
O -0.942 7.321 -8.375
O -1.901 9.261 -4.68
O -1.397 12.037 -4.508
O 0.72 12.99 -6.207
C -3.838 9.189 -3.245
C -3.346 8.233 -2.147
C -3.507 6.791 -2.556
C -2.818 6.568 -3.901
C -2.976 5.13 -4.374
C -3.272 8.856 -4.618
O -3.485 10.532 -2.905
O -4.077 8.477 -0.946
O -2.974 5.93 -1.581
O -3.342 7.455 -4.901
O -2.181 4.92 -5.53
