12
./arbalign_output/8w4x_sugars_model_47_chainB_pH74-aligned_to-8w4x_BGC.xyz
C 2.072 9.338 -5.82
C 1.626 8.426 -4.683
C -0.108 7.448 -6.02
C 0.278 8.316 -7.233
C -1.589 7.115 -6.001
C 1.754 8.701 -7.172
O 2.083 9.604 -8.209
O 3.463 9.591 -5.701
O 1.845 9.032 -3.428
O 0.229 8.116 -4.782
O -0.011 7.625 -8.426
O -2.347 8.289 -5.772
