12
./arbalign_output/8w4x_sugars_model_20_chainB_pH74-aligned_to-8w4x_BGC.xyz
C -5.98 -1.386 7.105
C -5.215 -2.654 7.492
C -5.656 -3.827 6.612
C -5.544 -3.45 5.12
C -6.039 -4.554 4.206
C -5.855 -1.116 5.611
O -6.624 0.006 5.231
O -5.488 -0.261 7.823
O -5.437 -2.938 8.863
O -4.885 -4.976 6.876
O -6.297 -2.245 4.84
O -7.411 -4.805 4.433
