23
./arbalign_output/8w4x_sugars_model_20_chainC_pH74-aligned_to-8w4x_BGCGLC.xyz
C 4.418 13.631 1.246
C 3.898 11.742 2.646
C 3.191 11.401 3.952
C 5.355 11.254 2.621
C 5.885 13.222 1.193
C 6.037 11.71 1.355
O 4.279 15.029 1.187
O 3.834 13.167 2.471
O 1.872 11.903 3.958
O 5.466 9.82 2.696
O 6.424 13.645 -0.046
O 7.423 11.351 1.384
C 5.578 9.275 4.005
C 6.539 6.946 3.529
C 4.104 7.326 3.732
C 5.247 6.37 4.065
C 2.76 6.788 4.212
C 6.796 8.353 4.099
O 7.913 8.953 3.435
O 7.63 6.089 3.867
O 4.997 5.084 3.546
O 4.338 8.622 4.31
O 1.71 7.602 3.711
