23
./arbalign_output/8w4x_sugars_model_7_chainC_pH74-aligned_to-8w4x_BGCGLC.xyz
C -3.892 1.833 -14.374
C -5.22 1.089 -14.476
C -5.578 0.425 -13.145
C -4.445 -0.466 -12.688
C -3.14 0.341 -12.638
C -1.945 -0.514 -12.25
O -3.507 2.352 -15.624
O -6.222 2.014 -14.858
O -6.783 -0.339 -13.284
O -4.784 -1.052 -11.414
O -2.869 0.937 -13.917
O -0.742 0.214 -12.402
C -3.564 -2.418 -8.988
C -2.258 -2.605 -8.227
C -4.625 -3.419 -8.536
C -5.9 -3.154 -9.298
C -5.658 -3.241 -10.815
C -4.445 -2.433 -11.282
O -1.418 -1.472 -8.425
O -4.828 -3.349 -7.138
O -6.902 -4.099 -8.918
O -3.322 -2.529 -10.398
O -6.826 -2.822 -11.524
