23
./arbalign_output/8w4x_sugars_model_42_chainC_pH74-aligned_to-8w4x_BGCGLC.xyz
C -7.465 10.32 -6.471
C -7.691 7.969 -6.016
C -7.936 6.652 -6.736
C -8.697 8.221 -4.878
C -8.475 10.652 -5.378
C -8.467 9.589 -4.28
O -7.524 11.255 -7.522
O -7.747 9.02 -6.995
O -7.005 6.482 -7.799
O -8.608 7.251 -3.813
O -9.465 9.879 -3.297
O -8.155 11.922 -4.844
C -10.317 5.919 -2.684
C -9.572 5.268 -1.501
C -8.821 4.031 -1.949
C -7.87 4.409 -3.083
C -7.054 3.217 -3.569
C -9.443 6.1 -3.932
O -10.859 7.182 -2.281
O -10.501 4.929 -0.474
O -8.126 3.43 -0.878
O -8.59 4.977 -4.193
O -6.026 3.658 -4.448
