12
./arbalign_output/8w4x_sugars_model_33_chainB_pH74-aligned_to-8w4x_BGC.xyz
C -9.152 4.435 5.563
C -8.872 3.376 6.627
C -8.89 1.989 5.996
C -7.933 1.937 4.792
C -7.983 0.6 4.086
C -8.178 4.288 4.402
O -8.462 5.214 3.382
O -9.036 5.739 6.115
O -9.836 3.472 7.657
O -8.534 1.008 6.938
O -8.249 2.974 3.838
O -9.252 0.406 3.494
