12
./arbalign_output/8w4x_BGC_conf24-aligned_to-8w4x_BGC.xyz-noHydrogens.xyz
C 1.773 0.445 -0.894
C 1.416 -1.04 -1.019
C 0.693 -1.339 0.273
C -0.54 -0.471 0.342
C -1.0 -0.557 1.792
C 0.444 1.134 -1.028
O 0.565 2.521 -1.109
O 2.701 0.841 -1.817
O 2.544 -1.834 -1.18
O 0.354 -2.658 0.429
O -0.301 0.855 0.09
O -1.274 -1.863 2.166
