12
./arbalign_output/8w4x_BGC_conf22-aligned_to-8w4x_BGC.xyz
C -1.724 0.195 0.789
C -0.309 -0.221 0.358
C -0.027 0.663 -0.839
C -0.929 0.185 -1.95
C -0.049 -0.523 -2.974
C -2.59 -0.209 -0.384
O -3.374 -1.298 0.066
O -1.745 1.561 1.041
O -0.453 -1.557 -0.013
O -0.34 2.003 -0.55
O -1.888 -0.66 -1.467
O 0.591 -1.613 -2.426
