23
./arbalign_output/8w4x_BGCGLC_conf25-aligned_to-8w4x_BGCGLC.xyz
C -2.576 0.184 2.715
C -1.113 0.259 3.157
C -0.175 -0.124 2.067
C -0.81 -0.565 0.782
C -2.198 -1.067 0.906
C -2.436 -2.434 0.308
O -2.848 1.102 1.717
O -0.901 1.569 3.62
O 0.679 -1.127 2.581
O -0.744 0.528 -0.113
O -2.712 -1.103 2.194
O -1.982 -2.575 -0.98
C -0.717 0.358 -2.463
C -1.418 1.723 -2.433
C -0.282 2.723 -2.552
C 0.801 2.473 -1.546
C 0.461 3.257 -0.284
C 0.069 0.294 -1.192
O 0.158 0.424 -3.565
O -2.039 1.933 -1.219
O 0.223 2.714 -3.859
O 1.127 1.178 -1.301
O 1.569 3.261 0.594
