12
./arbalign_output/8w4x_BGC_conf31-aligned_to-8w4x_BGC.xyz-noHydrogens.xyz
C 1.018 -1.522 0.092
C 0.531 -1.174 -1.261
C -0.864 -0.579 -1.233
C -0.825 0.446 -0.127
C -1.906 1.474 -0.227
C 0.399 -0.834 1.245
O 0.259 -1.768 2.286
O 2.397 -1.231 0.123
O 0.521 -2.266 -2.143
O -1.251 -0.069 -2.443
O -0.839 -0.279 1.045
O -3.183 0.95 -0.159
