12
./arbalign_output/8w4x_BGC_conf4-aligned_to-8w4x_BGC.xyz
C 0.521 -0.053 0.507
C 0.267 0.585 -0.847
C -1.051 1.248 -0.988
C -1.995 1.17 0.155
C -3.224 0.321 -0.158
C -0.12 0.916 1.483
O 0.242 0.705 2.797
O 1.872 -0.239 0.721
O 0.535 -0.369 -1.851
O -0.889 2.573 -1.435
O -1.474 0.69 1.333
O -2.892 -1.022 -0.299
