12
./arbalign_output/8w4x_BGC_conf3-aligned_to-8w4x_BGC.xyz
C 1.023 -0.158 1.333
C 1.816 -0.763 0.184
C 0.8 -1.312 -0.807
C -0.227 -0.271 -1.137
C -1.277 -0.944 -2.03
C 0.148 0.913 0.715
O -0.348 1.79 1.669
O 1.88 0.376 2.3
O 2.671 -1.76 0.611
O 1.484 -1.66 -1.947
O -0.854 0.227 0.017
O -1.868 -1.983 -1.336
