23
./arbalign_output/8w4x_BGCGLC_conf43-aligned_to-8w4x_BGCGLC.xyz
C -1.055 -3.855 -1.439
C 0.431 -3.675 -1.477
C 0.916 -2.43 -0.816
C -0.088 -1.305 -0.856
C -1.199 -1.557 -1.854
C -0.777 -1.152 -3.257
O -1.407 -4.172 -0.105
O 1.038 -4.77 -0.864
O 2.108 -2.072 -1.447
O -0.57 -0.946 0.388
O -1.803 -2.769 -1.764
O -0.172 0.124 -3.155
C -1.569 1.098 0.868
C -1.562 2.11 1.995
C -1.19 1.53 3.317
C -0.289 0.357 3.134
C -1.002 -0.966 3.36
C -0.264 0.341 0.793
O -1.722 1.809 -0.319
O -2.855 2.667 2.0
O -0.505 2.516 4.034
O 0.43 0.341 1.982
O -0.096 -2.021 3.447
