23
./arbalign_output/8w4x_BGCGLC_conf35-aligned_to-8w4x_BGCGLC.xyz-noHydrogens.xyz
C 2.153 2.982 -0.34
C 1.809 2.485 -1.752
C 0.451 1.839 -1.56
C 0.717 0.619 -0.691
C 1.552 0.88 0.51
C 2.439 -0.361 0.717
O 1.074 3.783 0.032
O 1.777 3.512 -2.678
O -0.023 1.331 -2.776
O -0.426 -0.101 -0.441
O 2.411 1.928 0.468
O 3.337 -0.488 -0.342
C -0.674 -2.398 0.002
C -1.99 -3.091 0.144
C -2.854 -3.045 -1.081
C -1.946 -2.672 -2.239
C -2.803 -2.739 -3.49
C -0.575 -1.322 -1.021
O 0.331 -3.381 -0.167
O -2.743 -2.618 1.22
O -3.49 -4.236 -1.366
O -1.576 -1.373 -1.987
O -3.939 -1.962 -3.293
