23
./arbalign_output/8w4x_sugars_model_22_chainC_pH74-aligned_to-8w4x_BGCGLC.xyz
C -0.782 9.128 -10.439
C -0.993 7.663 -10.047
C 0.333 7.021 -9.705
C 1.064 7.859 -8.641
C -0.031 9.889 -9.348
C 2.458 7.316 -8.334
O -2.026 9.769 -10.655
O -1.62 6.947 -11.117
O -0.517 3.911 -11.289
O 0.077 5.665 -9.27
O 0.252 11.209 -9.752
O 1.212 9.224 -9.069
C 1.069 3.557 -7.461
C 1.979 3.311 -6.252
C 0.557 2.244 -8.084
C 0.406 3.473 -10.285
C -0.317 2.559 -9.28
C 1.065 4.69 -9.628
O 3.069 8.075 -7.307
O 3.111 2.559 -6.644
O -0.143 1.485 -7.126
O 1.781 4.342 -8.433
O -0.7 1.346 -9.926
