23
./arbalign_output/8w4x_sugars_model_44_chainC_pH74-aligned_to-8w4x_BGCGLC.xyz
C 0.099 14.935 2.471
C -1.193 13.008 3.084
C -2.634 12.532 3.132
C -0.476 12.881 4.438
C 0.843 14.891 3.799
C 0.908 13.469 4.343
O -0.043 16.258 2.012
O -1.205 14.369 2.64
O -3.247 12.677 1.864
O -0.354 11.522 4.886
O 1.538 13.454 5.624
O 2.141 15.409 3.596
C -1.433 11.037 5.674
C -0.409 9.001 6.845
C -1.622 8.794 4.71
C -1.383 8.149 6.069
C -2.556 7.967 3.841
C -0.921 10.439 6.984
O 0.105 11.266 7.534
O -0.201 8.444 8.139
O -0.92 6.825 5.928
O -2.161 10.11 4.862
O -2.512 8.457 2.505
