12
./arbalign_output/8w4x_sugars_model_39_chainB_pH74-aligned_to-8w4x_BGC.xyz
C 5.107 7.849 -3.869
C 5.449 6.44 -4.352
C 4.179 5.626 -4.56
C 3.203 6.378 -5.477
C 1.898 5.636 -5.615
C 4.117 8.502 -4.829
O 3.752 9.796 -4.395
O 6.28 8.65 -3.782
O 6.293 5.808 -3.405
O 4.486 4.369 -5.125
O 2.931 7.707 -4.977
O 1.013 6.334 -6.483
