12
./arbalign_output/8w4x_sugars_model_34_chainB_pH74-aligned_to-8w4x_BGC.xyz
C 4.887 -1.24 -8.81
C 5.206 -2.243 -7.697
C 3.942 -2.595 -6.917
C 2.833 -3.071 -7.874
C 1.546 -3.352 -7.132
C 3.751 -1.773 -9.686
O 3.397 -0.845 -10.69
O 6.034 -1.01 -9.621
O 6.185 -1.693 -6.828
O 4.217 -3.607 -5.971
O 2.579 -2.083 -8.905
O 0.524 -3.799 -8.028
