23
./arbalign_output/8w4x_sugars_model_21_chainC_pH74-aligned_to-8w4x_BGCGLC.xyz
C 7.405 13.382 -5.547
C 6.115 12.567 -5.557
C 6.347 11.202 -6.192
C 7.512 10.482 -5.516
C 8.735 11.382 -5.439
C 9.847 10.703 -4.652
O 7.226 14.616 -4.901
O 5.125 13.282 -6.285
O 5.154 10.418 -6.094
O 7.87 9.333 -6.295
O 8.426 12.638 -4.837
O 11.037 11.46 -4.714
C 7.482 8.097 -5.763
C 7.753 5.617 -6.09
C 6.252 5.541 -6.231
C 5.585 6.677 -5.442
C 4.08 6.688 -5.56
C 8.244 7.008 -6.511
O 9.644 7.126 -6.267
O 8.383 4.629 -6.897
O 5.765 4.29 -5.769
O 6.079 7.936 -5.899
O 3.551 7.692 -4.715
