23
./arbalign_output/8w4x_sugars_model_32_chainC_pH74-aligned_to-8w4x_BGCGLC.xyz
C 2.814 14.63 -0.924
C 1.966 12.88 0.491
C 0.771 12.573 1.376
C 3.297 12.767 1.25
C 4.145 14.614 -0.185
C 4.438 13.228 0.382
O 2.505 15.919 -1.378
O 1.778 14.2 -0.037
O -0.432 12.685 0.64
O 3.587 11.417 1.664
O 5.158 15.002 -1.089
O 5.648 13.249 1.139
C 3.151 11.045 2.968
C 4.518 8.897 3.267
C 2.234 8.876 2.306
C 3.227 8.118 3.185
C 0.908 8.138 2.204
C 4.275 10.344 3.732
O 5.481 11.094 3.605
O 5.409 8.249 4.171
O 3.45 6.823 2.672
O 1.998 10.203 2.809
O 0.119 8.716 1.171
