12
./arbalign_output/8w4x_BGC_conf13-aligned_to-8w4x_BGC.xyz
C -1.11 2.046 0.822
C -1.209 0.839 -0.067
C -0.285 -1.21 -0.524
C -0.685 0.229 -2.446
C -1.104 -1.074 -1.776
C -1.083 1.34 -1.493
O -2.306 1.897 -1.862
O -2.198 2.865 0.508
O -0.148 -0.027 0.195
O 1.014 -1.553 -0.951
O 0.678 0.179 -2.679
O -2.459 -1.176 -1.61
