12
./arbalign_output/8w4x_BGC_conf12-aligned_to-8w4x_BGC.xyz
C 2.108 0.548 1.641
C 1.211 -0.527 2.187
C 0.575 -1.351 1.124
C 0.265 -0.611 -0.144
C -1.171 -0.136 -0.185
C 1.472 1.271 0.498
O 0.449 2.115 0.851
O 3.254 -0.091 1.154
O 0.277 -0.023 3.103
O 1.361 -2.454 0.859
O 1.18 0.355 -0.487
O -2.054 -1.177 0.178
