23
./arbalign_output/8w4x_sugars_model_35_chainC_pH74-aligned_to-8w4x_BGCGLC.xyz
C -2.63 13.209 -5.264
C -3.436 11.361 -3.961
C -4.692 10.537 -3.742
C -2.892 11.962 -2.658
C -2.063 13.871 -4.015
C -1.697 12.83 -2.961
O -3.062 14.17 -6.191
O -3.747 12.388 -4.905
O -5.117 9.967 -4.958
O -2.508 10.968 -1.696
O -0.93 14.625 -4.388
O -1.235 13.467 -1.77
C -2.899 10.724 0.68
C -2.077 9.489 1.076
C -2.813 8.212 0.755
C -3.182 8.211 -0.725
C -3.894 6.932 -1.128
C -3.495 10.639 -0.725
O -2.093 11.894 0.796
O -1.787 9.54 2.47
O -2.043 7.079 1.084
O -4.004 9.339 -1.043
O -3.948 6.837 -2.545
