12
./arbalign_output/8w4x_sugars_model_13_chainB_pH74-aligned_to-8w4x_BGC.xyz
C -0.47 -4.34 4.952
C 1.379 -5.683 6.002
C 0.496 -6.149 3.677
C 1.13 -6.764 4.947
C 0.145 -7.206 2.643
C 0.091 -4.889 6.263
O -1.692 -3.659 5.167
O 0.329 -3.805 7.156
O 1.829 -6.266 7.214
O 2.333 -7.422 4.608
O -0.704 -5.405 4.007
O -0.8 -8.13 3.171
