12
./arbalign_output/8w4x_BGC_conf42-aligned_to-8w4x_BGC.xyz
C 1.15 2.195 -0.246
C 1.359 1.228 0.885
C 0.675 -0.088 0.716
C 0.435 -0.473 -0.728
C -1.053 -0.424 -1.073
C 1.243 1.547 -1.601
O 0.309 2.112 -2.484
O 2.112 3.201 -0.094
O 0.837 1.82 2.054
O 1.457 -1.039 1.39
O 1.235 0.19 -1.611
O -1.557 0.85 -1.118
