12
./arbalign_output/8w4x_sugars_model_0_chainB_pH74-aligned_to-8w4x_BGC.xyz
C -4.43 4.394 6.804
C -4.055 3.282 7.791
C -4.945 2.058 7.573
C -4.921 1.63 6.088
C -5.867 0.471 5.805
C -4.396 3.864 5.373
O -4.788 4.866 4.451
O -3.534 5.494 6.908
O -4.196 3.77 9.116
O -4.528 0.984 8.384
O -5.282 2.739 5.228
O -7.208 0.836 6.106
