23
./arbalign_output/8w4x_BGCGLC_conf34-aligned_to-8w4x_BGCGLC.xyz-noHydrogens.xyz
C 2.475 1.044 2.404
C 1.792 -0.196 2.914
C 0.531 -0.417 2.156
C 0.253 0.674 1.154
C 1.447 1.146 0.403
C 1.393 2.648 0.208
O 3.736 1.216 3.013
O 2.694 -1.264 2.717
O -0.538 -0.417 3.055
O -0.764 0.354 0.28
O 2.652 0.887 1.038
O 2.459 3.094 -0.572
C -2.248 1.562 -1.048
C -2.003 0.377 -1.971
C -2.204 -0.937 -1.269
C -3.072 -0.887 -0.065
C -2.731 -2.078 0.838
C -1.908 1.08 0.348
O -3.572 1.986 -1.134
O -0.667 0.441 -2.364
O -2.863 -1.776 -2.2
O -2.951 0.23 0.709
O -3.618 -2.118 1.91
