12
./arbalign_output/8w4x_sugars_model_21_chainB_pH74-aligned_to-8w4x_BGC.xyz
C -7.171 5.846 -3.442
C -6.614 4.835 -2.444
C -5.767 3.431 -4.201
C -6.289 4.395 -5.284
C -5.745 1.992 -4.677
C -6.362 5.819 -4.739
O -6.962 6.686 -5.682
O -7.14 7.14 -2.861
O -7.408 4.788 -1.274
O -6.584 3.517 -3.012
O -5.457 4.336 -6.421
O -7.067 1.503 -4.801
