23
./arbalign_output/8w4x_BGCGLC_conf2-aligned_to-8w4x_BGCGLC.xyz-noHydrogens.xyz
C -0.647 2.26 1.903
C -0.55 0.84 2.383
C -1.209 -0.035 1.359
C -0.76 0.237 -0.052
C -0.517 1.678 -0.352
C -1.733 2.324 -1.031
O 0.002 3.148 2.791
O 0.731 0.443 2.713
O -2.591 0.112 1.499
O 0.272 -0.614 -0.448
O -0.049 2.422 0.691
O -2.799 2.499 -0.192
C 0.99 -1.362 -2.526
C 0.825 -2.421 -3.56
C -0.18 -3.48 -3.229
C -0.305 -3.79 -1.781
C 0.464 -5.058 -1.432
C -0.063 -1.516 -1.426
O 0.955 -0.099 -3.085
O 2.084 -3.016 -3.795
O -1.418 -3.111 -3.797
O 0.126 -2.801 -0.926
O 0.225 -5.433 -0.112
