12
./arbalign_output/8w4x_sugars_model_27_chainB_pH74-aligned_to-8w4x_BGC.xyz
C -5.614 3.559 7.562
C -5.519 2.125 8.088
C -6.292 1.18 7.165
C -5.817 1.346 5.705
C -6.613 0.482 4.743
C -5.163 3.629 6.106
O -5.321 4.934 5.589
O -4.811 4.437 8.342
O -6.03 2.07 9.408
O -6.134 -0.16 7.573
O -5.925 2.728 5.284
O -7.961 0.907 4.694
