23
./arbalign_output/8w4x_sugars_model_13_chainC_pH74-aligned_to-8w4x_BGCGLC.xyz
C 2.162 9.983 -8.508
C 0.595 8.19 -8.91
C -0.893 7.854 -8.929
C 1.351 7.238 -7.985
C 2.819 7.644 -7.857
C 2.945 9.126 -7.508
O 0.774 9.556 -8.517
O -1.585 8.643 -9.876
O -0.614 4.038 -9.418
O 1.287 5.923 -8.55
O 2.204 11.347 -8.155
O 4.313 9.522 -7.532
C 1.482 3.541 -5.832
C 2.604 3.364 -4.837
C 1.145 2.261 -6.622
C 0.452 3.707 -8.531
C 0.048 2.532 -7.631
C 0.836 4.919 -7.683
O 3.47 6.848 -6.853
O 2.821 4.581 -4.139
O 0.758 1.229 -5.727
O 1.846 4.589 -6.733
O -0.197 1.382 -8.436
