23
./arbalign_output/8w4x_sugars_model_14_chainC_pH74-aligned_to-8w4x_BGCGLC.xyz
C -0.929 3.282 -13.342
C -1.794 2.178 -13.953
C -2.404 1.29 -12.87
C -3.149 2.14 -11.866
C -2.196 3.216 -11.305
C -2.853 4.117 -10.263
O -0.48 4.176 -14.332
O -0.991 1.407 -14.827
O -3.279 0.322 -13.452
O -5.07 2.133 -9.21
O -1.69 4.029 -12.377
O -3.711 5.064 -10.877
C -4.748 2.209 -6.818
C -4.627 1.36 -8.081
C -5.417 0.047 -7.953
C -5.324 -0.738 -9.246
C -5.747 0.123 -10.449
C -5.031 1.475 -10.489
O -3.783 3.252 -6.842
O -4.926 -0.713 -6.872
O -6.16 -1.892 -9.167
O -3.663 1.277 -10.847
O -5.49 -0.587 -11.665
