23
./arbalign_output/8w4x_BGCGLC_conf28-aligned_to-8w4x_BGCGLC.xyz-noHydrogens.xyz
C 0.764 4.377 0.242
C -0.561 3.784 -0.014
C -0.61 2.313 -0.321
C 0.749 1.763 -0.704
C 1.705 2.371 0.285
C 2.972 1.612 0.441
O 0.932 4.574 1.632
O -1.465 4.132 1.001
O -1.541 2.011 -1.313
O 0.829 0.41 -0.677
O 1.871 3.69 -0.178
O 2.646 0.349 0.931
C 2.319 -1.077 -1.917
C 2.16 -2.381 -1.193
C 0.788 -2.394 -0.553
C -0.221 -2.06 -1.599
C -1.586 -2.155 -0.947
C 1.125 -0.201 -1.866
O 2.559 -1.407 -3.272
O 3.165 -2.583 -0.246
O 0.485 -3.708 -0.127
O -0.02 -0.886 -2.267
O -1.766 -3.36 -0.273
