23
./arbalign_output/8w4x_BGCGLC_conf20-aligned_to-8w4x_BGCGLC.xyz-noHydrogens.xyz
C -2.757 2.058 1.676
C -2.596 2.219 0.19
C -1.968 1.0 -0.449
C -1.503 0.115 0.721
C -2.76 -0.263 1.429
C -2.522 -1.418 2.337
O -3.711 3.034 2.055
O -3.843 2.504 -0.363
O -0.923 1.308 -1.306
O -0.72 -0.92 0.259
O -3.263 0.854 2.086
O -3.684 -1.851 2.976
C 1.229 -1.88 1.389
C 2.492 -1.276 2.028
C 3.289 -0.444 1.09
C 2.463 0.275 0.057
C 3.369 0.806 -1.026
C 0.58 -0.734 0.691
O 0.523 -2.467 2.399
O 3.264 -2.244 2.624
O 3.951 0.539 1.832
O 1.43 -0.513 -0.443
O 4.358 1.577 -0.399
