12
./arbalign_output/8w4x_sugars_model_16_chainB_pH74-aligned_to-8w4x_BGC.xyz
C -11.07 2.391 -0.028
C -9.686 1.907 0.412
C -9.019 1.468 -1.859
C -10.384 1.947 -2.405
C -8.396 0.401 -2.737
C -11.011 2.963 -1.447
O -12.321 3.309 -1.872
O -11.534 3.37 0.899
O -9.738 1.306 1.689
O -9.16 0.94 -0.516
O -10.221 2.499 -3.686
O -9.213 -0.754 -2.774
