12
./arbalign_output/8w4x_sugars_model_3_chainB_pH74-aligned_to-8w4x_BGC.xyz
C -5.401 0.087 9.435
C -4.472 -1.067 9.82
C -4.925 -2.351 9.136
C -5.056 -2.132 7.617
C -5.572 -3.367 6.907
C -5.503 0.206 7.921
O -6.423 1.216 7.548
O -4.926 1.311 9.966
O -4.47 -1.218 11.223
O -4.02 -3.398 9.391
O -5.945 -1.026 7.335
O -6.907 -3.63 7.3
