12
./arbalign_output/8w4x_BGC_conf18-aligned_to-8w4x_BGC.xyz
C -0.08 -0.23 -0.79
C 0.477 -0.935 0.453
C 0.266 0.127 1.541
C -1.11 0.688 1.448
C -1.152 2.187 1.206
C -1.583 -0.289 -0.612
O -2.23 0.415 -1.617
O 0.324 -0.937 -1.915
O 1.807 -1.274 0.31
O 0.609 -0.376 2.793
O -1.996 -0.002 0.659
O -0.225 2.84 2.04
