23
./arbalign_output/8w4x_BGCGLC_conf36-aligned_to-8w4x_BGCGLC.xyz-noHydrogens.xyz
C -0.494 0.799 -4.106
C -1.586 1.562 -3.399
C -1.396 1.394 -1.882
C 0.087 1.099 -1.627
C 0.876 1.904 -2.609
C 2.334 2.056 -2.283
O -0.709 0.868 -5.488
O -1.578 2.88 -3.794
O -2.207 0.333 -1.51
O 0.443 1.047 -0.34
O 0.787 1.216 -3.827
O 2.505 2.801 -1.093
C 1.89 -0.181 1.06
C 2.084 -1.612 1.543
C 0.905 -1.991 2.362
C -0.408 -1.503 1.845
C -1.361 -1.365 3.023
C 0.656 -0.198 0.213
O 3.039 0.279 0.43
O 3.294 -1.767 2.193
O 0.838 -3.39 2.54
O -0.398 -0.354 1.138
O -2.675 -1.094 2.612
