12
./arbalign_output/8w4x_sugars_model_32_chainB_pH74-aligned_to-8w4x_BGC.xyz
C -8.126 1.943 6.041
C -8.151 0.603 6.781
C -8.45 -0.533 5.806
C -7.472 -0.488 4.614
C -7.776 -1.556 3.579
C -7.167 1.881 4.858
O -7.188 3.079 4.116
O -7.721 2.99 6.907
O -9.12 0.651 7.805
O -8.363 -1.782 6.447
O -7.509 0.805 3.968
O -8.991 -1.262 2.919
