23
./arbalign_output/8w4x_BGCGLC_conf18-aligned_to-8w4x_BGCGLC.xyz
C 1.627 3.212 1.265
C 1.503 3.005 -0.213
C 1.572 1.525 -0.457
C 0.455 0.847 0.291
C 0.051 1.507 1.546
C -0.027 0.474 2.682
O 1.491 4.576 1.534
O 0.398 3.598 -0.77
O 2.819 1.038 -0.091
O -0.586 0.686 -0.626
O 0.779 2.524 2.043
O -0.645 1.068 3.785
C -2.238 -1.087 -0.715
C -2.38 -2.504 -1.163
C -1.105 -3.153 -1.618
C -0.203 -2.265 -2.412
C -0.322 -2.63 -3.884
C -0.81 -0.645 -0.954
O -2.588 -0.934 0.624
O -3.323 -2.613 -2.193
O -0.43 -3.754 -0.532
O -0.559 -0.905 -2.301
O -1.612 -2.435 -4.329
