23
./arbalign_output/8w4x_BGCGLC_conf11-aligned_to-8w4x_BGCGLC.xyz-noHydrogens.xyz
C -2.542 2.311 2.387
C -1.09 2.406 2.799
C -0.137 1.969 1.703
C -0.569 0.592 1.255
C -2.068 0.451 1.129
C -2.639 -0.445 2.233
O -3.134 3.59 2.272
O -0.84 3.752 3.102
O 1.131 1.862 2.249
O 0.15 0.095 0.201
O -2.68 1.699 1.164
O -3.989 -0.61 2.062
C 0.554 -2.231 -0.253
C 1.603 -2.869 -1.103
C 2.704 -2.008 -1.59
C 2.646 -0.604 -1.037
C 1.708 0.262 -1.829
C 0.995 -0.96 0.422
O 0.036 -3.18 0.656
O 1.034 -3.59 -2.181
O 3.968 -2.573 -1.431
O 2.335 -0.736 0.305
O 1.659 1.566 -1.345
