23
./arbalign_output/8w4x_sugars_model_36_chainC_pH74-aligned_to-8w4x_BGCGLC.xyz
C -3.845 13.778 -6.789
C -5.351 13.573 -6.876
C -5.782 12.329 -6.106
C -5.292 12.402 -4.678
C -3.777 12.672 -4.65
C -3.256 12.88 -3.235
O -3.463 14.972 -7.423
O -5.71 13.463 -8.24
O -7.205 12.199 -6.13
O -5.66 11.168 -4.029
O -3.447 13.841 -5.415
O -1.86 13.102 -3.245
C -5.995 11.253 -2.642
C -3.653 8.784 -1.042
C -4.829 9.219 -1.91
C -6.13 8.572 -1.449
C -7.269 9.047 -2.326
C -7.344 10.584 -2.368
O -4.921 10.653 -1.897
O -2.435 9.168 -1.654
O -6.023 7.167 -1.477
O -8.295 10.989 -3.359
O -8.503 8.526 -1.837
