23
./arbalign_output/8w4x_sugars_model_47_chainC_pH74-aligned_to-8w4x_BGCGLC.xyz
C -6.985 11.6 -6.811
C -6.995 9.362 -5.972
C -7.026 7.906 -6.413
C -8.05 9.711 -4.906
C -7.981 12.04 -5.746
C -7.882 11.155 -4.511
O -7.16 12.332 -7.995
O -7.17 10.211 -7.113
O -7.795 7.73 -7.586
O -7.947 8.908 -3.73
O -7.714 13.385 -5.408
O -8.86 11.538 -3.545
C -9.543 7.981 -2.167
C -8.611 7.348 -1.124
C -8.137 5.987 -1.578
C -7.48 6.118 -2.954
C -6.956 4.784 -3.468
C -8.97 7.937 -3.584
O -9.836 9.332 -1.805
O -9.292 7.238 0.125
O -7.242 5.42 -0.65
O -8.393 6.671 -3.913
O -6.165 4.999 -4.63
