12
./arbalign_output/8w4x_sugars_model_36_chainB_pH74-aligned_to-8w4x_BGC.xyz
C -3.678 3.434 9.724
C -3.701 2.03 10.336
C -4.652 1.127 9.55
C -4.313 1.157 8.046
C -5.285 0.338 7.223
C -3.373 3.365 8.232
O -3.437 4.644 7.644
O -2.699 4.245 10.367
O -4.099 2.113 11.69
O -4.595 -0.195 10.03
O -4.311 2.516 7.549
O -6.56 0.94 7.215
