12
./arbalign_output/8w4x_sugars_model_31_chainB_pH74-aligned_to-8w4x_BGC.xyz
C 3.578 7.688 -2.639
C 2.612 6.809 -1.86
C 1.0 6.851 -3.637
C 1.924 7.715 -4.518
C -0.464 7.126 -3.907
C 3.385 7.493 -4.14
O 4.22 8.396 -4.84
O 4.905 7.367 -2.253
O 2.738 7.027 -0.47
O 1.254 7.089 -2.236
O 1.706 7.408 -5.873
O -0.772 8.472 -3.589
