12
./arbalign_output/8w4x_BGC_conf36-aligned_to-8w4x_BGC.xyz
C 1.916 1.332 -0.217
C 1.597 -0.16 -0.219
C 0.683 -0.353 0.976
C -0.645 0.242 0.551
C -1.488 -0.929 0.076
C 0.569 2.029 -0.284
O 0.608 2.849 -1.432
O 2.643 1.688 0.925
O 1.134 0.442 2.054
O 0.924 -0.372 -1.422
O -0.493 1.184 -0.432
O -2.759 -0.507 -0.302
