31
./arbalign_output/CSD_GAYLOH_ATP_manual-aligned_to-6ln3_ATP.xyz
P 14.222 0.788 2.445
O 11.894 -1.342 1.841
O 10.393 1.215 1.098
O 13.525 1.088 1.158
P 11.862 -0.808 3.198
O 11.713 -1.736 4.347
O 15.316 -0.222 2.269
O 14.569 1.988 3.201
P 10.283 1.545 2.515
O 13.168 0.067 3.447
O 11.028 2.712 3.08
O 10.687 0.238 3.316
O 8.789 1.72 2.933
C 7.779 0.693 2.598
C 6.664 3.332 4.27
O 5.979 4.531 4.774
C 6.018 2.655 3.166
O 4.597 2.62 3.268
C 6.44 1.208 3.319
O 6.721 1.043 4.755
C 6.637 2.311 5.378
N 7.724 2.431 6.319
C 9.095 2.494 6.029
N 9.847 2.46 7.075
C 8.953 2.338 8.154
C 9.175 2.276 9.549
N 10.347 2.31 10.126
N 8.078 2.189 10.302
C 6.849 2.162 9.708
N 6.532 2.196 8.397
C 7.619 2.356 7.707
