37
./arbalign_output/CSD_AJIGUZ_imatinib_manual-aligned_to-4csv_imatinib.xyz
C -0.013 1.657 0.601
C -0.148 2.202 -0.796
C 0.741 3.182 -1.281
C -1.36 2.321 -2.901
N 1.808 3.566 -0.442
C -1.177 1.785 -1.631
C 0.553 3.735 -2.546
C 2.438 4.779 -0.369
C 4.024 6.028 0.641
N 2.007 5.773 -1.146
C 2.637 6.951 -1.024
N 3.439 4.837 0.534
N -0.733 3.983 -4.586
C 2.151 8.025 -1.923
C 2.914 9.155 -2.209
C 2.406 10.104 -3.078
C 1.148 9.907 -3.617
C 0.89 7.927 -2.51
C -0.498 3.313 -3.35
N 0.372 8.848 -3.335
C 0.244 4.224 -5.503
C -0.828 6.409 -6.156
C 2.405 10.723 -8.019
C 1.077 10.003 -7.973
C -0.985 7.47 -7.04
C 0.528 5.263 -7.77
C -0.066 5.299 -6.505
C -0.483 8.627 -9.23
N 0.776 9.389 -9.272
C 3.668 12.518 -9.142
C 1.996 11.202 -10.386
N 2.37 11.795 -9.062
C 0.681 10.456 -10.273
C 0.358 6.32 -8.652
C -0.386 7.443 -8.295
O 1.335 3.655 -5.499
C 3.668 7.134 -0.115
