24
./arbalign_output/DUYTIA_fixed_backbone-aligned_to-BINJIR_fixed_backbone.xyz
N 6.159 8.25 6.042
C 4.925 8.032 6.799
C 4.909 8.442 8.25
O 3.812 8.653 8.769
N 6.053 8.497 8.931
C 6.105 8.891 10.322
C 6.892 10.199 10.581
O 6.976 10.624 11.712
N 7.531 10.747 9.539
C 8.486 11.832 9.765
C 8.787 12.463 8.414
O 8.929 11.75 7.426
N 8.972 13.796 8.346
C 9.535 14.367 7.112
C 8.641 14.092 5.92
O 7.447 14.349 5.936
N 9.272 13.587 4.859
C 8.603 13.252 3.621
C 8.107 11.777 3.564
O 7.79 11.289 2.503
N 8.017 11.166 4.746
C 7.727 9.745 4.851
C 6.593 9.526 5.854
O 6.075 10.444 6.475
