17
./arbalign_output/s1maw1-4-aligned_to-s1maw1-1.xyz
S 0.44986 -1.86139 -1.04756
O 1.33249 -0.9348 -1.80107
O -0.94458 -1.34174 -0.75676
O 0.22048 -3.19441 -2.02864
O 1.05374 -2.49186 0.19873
H 0.40907 -2.87083 -2.92728
H -0.90934 -0.95328 1.93216
N -0.66912 -1.95051 2.11788
H -0.27128 -2.03006 3.05462
H 0.0784 -2.20057 1.38875
C -1.85461 -2.83331 1.9339
H -1.55335 -3.87415 2.1026
H -2.19016 -2.7035 0.89872
H -2.64579 -2.54684 2.63748
O -1.13053 0.59834 1.10457
H -0.53916 1.35916 1.04404
H -1.03312 0.12577 0.24385
