17
./arbalign_output/s1maw1-19-aligned_to-s1maw1-1.xyz
S 0.02153 0.09952 -1.74159
O 1.15614 1.29186 -1.33786
O -1.26676 0.8374 -1.46812
O 0.31793 -0.29675 -3.13569
O 0.24471 -0.99905 -0.70639
H 1.94944 1.06502 -1.8545
H -1.1624 0.86655 1.19738
N -1.3896 -0.15328 1.19724
H -0.25836 -0.6741 2.89106
H -0.71443 -0.58496 0.48564
C -1.29229 -0.77429 2.53968
H -1.55078 -1.83755 2.46741
H -2.32247 -0.23706 0.78707
H -1.97159 -0.26932 3.23738
O -1.01744 2.54038 0.66148
H -0.17399 3.01188 0.68906
H -1.06165 2.19474 -0.25927
