120
./arbalign_output/seed-5_sample-2_model_chainA_pH74-aligned_to-215d_DNA_manual.xyz
O 11.397 6.234 1.418
C 11.585 7.098 2.523
C 10.304 7.293 3.346
O 9.27 7.827 2.523
C 9.766 5.994 3.962
O 9.441 6.227 5.333
C 8.537 5.702 3.12
C 8.072 7.104 2.755
N 7.203 7.139 1.551
C 5.886 7.64 1.661
O 5.471 8.031 2.762
N 5.082 7.68 0.572
C 5.552 7.249 -0.6
N 4.72 7.312 -1.64
C 6.893 6.735 -0.747
C 7.679 6.702 0.346
P 8.929 5.174 6.349
O 9.451 5.497 7.699
O 9.197 3.839 5.781
O 7.346 5.422 6.339
C 6.755 6.528 7.015
C 5.255 6.384 7.175
O 4.606 6.54 5.914
C 4.836 5.022 7.748
O 3.838 5.235 8.748
C 4.289 4.314 6.512
C 3.7 5.465 5.711
N 3.613 5.209 4.277
C 4.655 4.959 3.415
N 4.294 4.905 2.165
C 2.917 5.131 2.187
C 1.966 5.223 1.133
O 2.175 5.154 -0.072
N 0.674 5.435 1.583
C 0.336 5.55 2.897
N -0.964 5.731 3.151
N 1.211 5.498 3.899
C 2.482 5.292 3.48
P 3.276 4.049 9.658
O 2.758 4.642 10.907
O 4.288 2.98 9.745
O 2.04 3.512 8.792
C 0.842 4.267 8.668
C -0.151 3.62 7.72
O 0.365 3.626 6.393
C -0.477 2.157 8.075
O -1.873 2.046 8.295
C -0.005 1.411 6.827
C -0.136 2.468 5.748
N 0.643 2.208 4.514
C -0.007 2.275 3.276
O -1.201 2.458 3.155
N 0.783 2.119 2.17
C 2.132 1.902 2.17
O 2.731 1.818 1.101
C 2.766 1.797 3.498
C 4.233 1.518 3.616
C 1.996 1.967 4.592
P -2.566 0.659 8.743
O -3.772 0.982 9.53
O -1.544 -0.229 9.338
O -3.01 0.037 7.33
C -4.12 0.561 6.624
C -4.432 -0.222 5.354
O -3.424 0.024 4.366
C -4.495 -1.746 5.568
O -5.758 -2.212 5.109
C -3.326 -2.247 4.718
C -3.209 -1.179 3.646
N -1.894 -1.116 3.002
C -0.657 -1.076 3.602
N 0.338 -0.946 2.759
C -0.293 -0.898 1.515
C 0.195 -0.754 0.195
N 1.481 -0.599 -0.09
N -0.68 -0.767 -0.829
C -1.969 -0.905 -0.543
N -2.555 -1.033 0.652
C -1.658 -1.015 1.648
P -6.155 -3.782 5.114
O -7.605 -3.862 5.326
O -5.262 -4.534 6.02
O -5.828 -4.216 3.607
C -6.59 -3.694 2.527
C -6.025 -4.117 1.177
O -4.681 -3.642 1.036
C -5.988 -5.636 0.97
O -6.56 -5.946 -0.294
C -4.489 -5.931 1.011
C -3.92 -4.662 0.41
N -2.476 -4.466 0.668
C -1.609 -4.192 -0.417
O -2.064 -4.13 -1.566
N -0.283 -4.01 -0.198
C 0.189 -4.085 1.046
N 1.493 -3.888 1.21
C -0.661 -4.367 2.176
C -1.973 -4.544 1.936
P -6.678 -7.43 -0.886
O -7.901 -7.511 -1.7
O -6.488 -8.392 0.22
O -5.403 -7.506 -1.859
C -5.383 -6.773 -3.071
C -4.153 -7.08 -3.909
O -2.964 -6.595 -3.269
C -3.938 -8.584 -4.14
O -3.638 -8.818 -5.507
C -2.721 -8.873 -3.259
C -1.957 -7.582 -3.405
N -0.921 -7.38 -2.387
C -1.069 -7.343 -1.015
N 0.05 -7.083 -0.389
C 0.995 -6.946 -1.408
C 2.387 -6.645 -1.36
O 3.073 -6.418 -0.367
N 2.978 -6.611 -2.613
C 2.312 -6.832 -3.782
N 3.049 -6.778 -4.898
N 1.009 -7.101 -3.855
C 0.414 -7.138 -2.632
