120
./arbalign_output/seed-3_sample-1_model_chainA_pH74-aligned_to-215d_DNA_manual.xyz
O -1.145 -9.289 3.486
C -1.127 -9.867 4.791
C -0.705 -8.835 5.838
O 0.635 -8.445 5.606
C -1.574 -7.585 5.773
O -2.234 -7.398 7.019
C -0.624 -6.465 5.437
C 0.746 -7.028 5.683
N 1.681 -6.533 4.654
C 2.67 -5.589 5.002
O 2.747 -5.186 6.173
N 3.52 -5.122 4.061
C 3.408 -5.566 2.809
N 4.263 -5.072 1.916
C 2.412 -6.524 2.423
C 1.577 -6.979 3.374
P -3.503 -6.477 7.232
O -4.201 -6.886 8.471
O -4.26 -6.416 5.97
O -2.807 -5.048 7.469
C -2.151 -4.733 8.682
C -1.694 -3.29 8.744
O -0.616 -3.079 7.845
C -2.804 -2.293 8.395
O -2.849 -1.296 9.404
C -2.348 -1.754 7.045
C -0.839 -1.886 7.111
N -0.207 -2.019 5.803
C -0.466 -2.985 4.859
N 0.353 -2.952 3.844
C 1.212 -1.891 4.119
C 2.325 -1.38 3.398
O 2.8 -1.803 2.354
N 2.906 -0.28 4.001
C 2.468 0.263 5.169
N 3.128 1.341 5.595
N 1.444 -0.215 5.876
C 0.862 -1.293 5.304
P -3.955 -0.157 9.442
O -4.08 0.293 10.842
O -5.166 -0.607 8.728
O -3.286 1.021 8.586
C -2.179 1.742 9.086
C -1.615 2.711 8.076
O -1.05 1.985 6.991
C -2.661 3.668 7.491
O -2.287 5.0 7.796
C -2.595 3.351 5.997
C -1.207 2.781 5.836
N -1.025 1.954 4.621
C 0.039 2.249 3.761
O 0.789 3.191 3.918
N 0.207 1.406 2.693
C -0.571 0.327 2.396
O -0.292 -0.356 1.425
C -1.702 0.077 3.314
C -2.647 -1.043 3.058
C -1.861 0.893 4.377
P -3.137 6.273 7.394
O -2.906 7.315 8.411
O -4.521 5.852 7.109
O -2.456 6.73 6.013
C -1.169 7.317 5.994
C -0.755 7.781 4.608
O -0.484 6.65 3.774
C -1.825 8.63 3.907
O -1.216 9.817 3.413
C -2.302 7.697 2.793
C -1.076 6.856 2.505
N -1.374 5.552 1.916
C -2.267 4.61 2.368
N -2.24 3.487 1.688
C -1.26 3.705 0.721
C -0.731 2.899 -0.312
N -1.112 1.65 -0.523
N 0.215 3.413 -1.119
C 0.606 4.66 -0.904
N 0.204 5.511 0.041
C -0.735 4.973 0.835
P -2.067 10.957 2.669
O -1.297 12.203 2.779
O -3.46 10.936 3.144
O -2.053 10.474 1.143
C -0.861 10.509 0.385
C -1.023 9.865 -0.982
O -1.276 8.461 -0.841
C -2.183 10.436 -1.809
O -1.662 11.091 -2.957
C -2.992 9.185 -2.174
C -1.988 8.066 -2.003
N -2.604 6.729 -1.8
C -2.263 5.664 -2.667
O -1.477 5.855 -3.598
N -2.81 4.437 -2.482
C -3.66 4.249 -1.476
N -4.157 3.029 -1.326
C -4.035 5.316 -0.577
C -3.481 6.523 -0.777
P -2.557 11.895 -4.006
O -1.733 12.933 -4.647
O -3.814 12.295 -3.341
O -2.892 10.759 -5.093
C -1.898 10.285 -5.983
C -2.421 9.21 -6.924
O -2.683 7.988 -6.218
C -3.732 9.602 -7.624
O -3.637 9.357 -9.022
C -4.744 8.653 -6.984
C -3.882 7.435 -6.722
N -4.464 6.489 -5.764
C -4.999 6.746 -4.523
N -5.426 5.669 -3.919
C -5.158 4.627 -4.818
C -5.394 3.22 -4.737
O -5.895 2.591 -3.812
N -4.984 2.532 -5.87
C -4.407 3.122 -6.953
N -4.078 2.302 -7.953
N -4.178 4.426 -7.05
C -4.573 5.123 -5.954
