120
./arbalign_output/seed-2_sample-3_model_chainA_pH74-aligned_to-215d_DNA_manual.xyz
O -0.189 -4.951 -11.13
C 0.928 -5.462 -11.841
C 2.234 -5.254 -11.068
O 2.503 -3.861 -10.93
C 2.196 -5.85 -9.654
O 3.373 -6.609 -9.423
C 2.101 -4.634 -8.761
C 2.811 -3.566 -9.573
N 2.358 -2.195 -9.243
C 3.285 -1.242 -8.768
O 4.48 -1.561 -8.628
N 2.867 0.011 -8.46
C 1.578 0.323 -8.612
N 1.21 1.561 -8.296
C 0.613 -0.622 -9.095
C 1.045 -1.859 -9.4
P 3.638 -7.495 -8.124
O 4.503 -8.64 -8.496
O 2.34 -7.766 -7.479
O 4.482 -6.502 -7.181
C 5.837 -6.197 -7.473
C 6.518 -5.413 -6.363
O 5.995 -4.091 -6.284
C 6.353 -6.055 -4.975
O 7.619 -6.051 -4.33
C 5.342 -5.127 -4.308
C 5.654 -3.78 -4.941
N 4.534 -2.842 -4.951
C 3.271 -3.062 -5.458
N 2.521 -1.999 -5.459
C 3.328 -1.001 -4.913
C 3.076 0.379 -4.682
O 2.061 1.009 -4.952
N 4.145 1.033 -4.089
C 5.327 0.432 -3.76
N 6.24 1.21 -3.174
N 5.595 -0.855 -3.992
C 4.558 -1.513 -4.572
P 7.857 -6.637 -2.856
O 9.255 -7.109 -2.78
O 6.766 -7.581 -2.542
O 7.703 -5.352 -1.909
C 8.674 -4.318 -1.938
C 8.304 -3.157 -1.034
O 7.11 -2.544 -1.496
C 8.074 -3.567 0.434
O 8.937 -2.802 1.259
C 6.6 -3.219 0.642
C 6.365 -2.125 -0.369
N 4.954 -1.938 -0.77
C 4.397 -0.659 -0.69
O 4.981 0.295 -0.206
N 3.126 -0.524 -1.188
C 2.368 -1.517 -1.745
O 1.262 -1.249 -2.191
C 2.983 -2.855 -1.762
C 2.227 -4.029 -2.295
C 4.238 -2.991 -1.287
P 9.044 -3.005 2.862
O 10.437 -2.745 3.273
O 8.427 -4.299 3.212
O 8.113 -1.827 3.432
C 8.549 -0.481 3.385
C 7.56 0.473 4.044
O 6.357 0.535 3.274
C 7.164 0.063 5.476
O 7.213 1.222 6.307
C 5.749 -0.481 5.279
C 5.234 0.353 4.119
N 4.175 -0.291 3.34
C 4.11 -1.596 2.908
N 3.074 -1.856 2.146
C 2.408 -0.63 2.075
C 1.234 -0.217 1.407
N 0.507 -1.026 0.638
N 0.825 1.06 1.55
C 1.556 1.871 2.311
N 2.684 1.609 2.975
C 3.066 0.333 2.813
P 6.78 1.186 7.875
O 7.562 2.213 8.57
O 6.816 -0.206 8.375
O 5.249 1.654 7.816
C 4.915 2.976 7.421
C 3.409 3.165 7.275
O 2.903 2.286 6.265
C 2.614 2.88 8.557
O 1.826 4.02 8.878
C 1.744 1.681 8.16
C 1.61 1.859 6.662
N 1.248 0.621 5.926
C 0.125 0.628 5.065
O -0.556 1.653 4.954
N -0.205 -0.489 4.37
C 0.538 -1.587 4.509
N 0.18 -2.655 3.799
C 1.684 -1.633 5.383
C 1.994 -0.514 6.059
P 0.871 4.125 10.173
O 0.899 5.516 10.661
O 1.217 3.036 11.106
O -0.569 3.83 9.539
C -1.194 4.78 8.687
C -2.591 4.35 8.265
O -2.522 3.213 7.389
C -3.496 3.947 9.439
O -4.804 4.476 9.249
C -3.514 2.425 9.324
C -3.459 2.241 7.825
N -3.018 0.915 7.392
C -1.87 0.243 7.748
N -1.738 -0.909 7.145
C -2.872 -1.01 6.336
C -3.287 -2.03 5.431
O -2.701 -3.073 5.146
N -4.507 -1.75 4.826
C -5.236 -0.615 5.055
N -6.393 -0.524 4.39
N -4.858 0.355 5.886
C -3.67 0.097 6.489
