120
./arbalign_output/seed-5_sample-3_model_chainA_pH74-aligned_to-215d_DNA_manual.xyz
O -11.933 2.947 -4.134
C -12.347 3.421 -5.422
C -11.163 3.607 -6.39
O -10.273 4.608 -5.899
C -10.355 2.316 -6.574
O -10.214 2.033 -7.966
C -9.032 2.634 -5.886
C -8.934 4.144 -6.036
N -8.045 4.772 -5.014
C -6.871 5.471 -5.411
O -6.587 5.575 -6.616
N -6.056 6.023 -4.471
C -6.38 5.901 -3.179
N -5.548 6.453 -2.293
C -7.564 5.203 -2.746
C -8.361 4.66 -3.688
P -9.645 0.724 -8.584
O -10.29 0.46 -9.886
O -9.692 -0.313 -7.54
O -8.105 1.112 -8.842
C -7.726 1.955 -9.921
C -6.222 2.069 -10.077
O -5.654 2.757 -8.972
C -5.533 0.703 -10.188
O -4.577 0.751 -11.25
C -4.888 0.575 -8.813
C -4.543 2.016 -8.483
N -4.377 2.274 -7.053
C -5.341 2.158 -6.074
N -4.964 2.621 -4.912
C -3.656 3.063 -5.116
C -2.735 3.702 -4.234
O -2.926 4.043 -3.074
N -1.501 3.952 -4.819
C -1.195 3.635 -6.113
N 0.05 3.923 -6.5
N -2.059 3.081 -6.973
C -3.271 2.824 -6.417
P -3.784 -0.522 -11.767
O -3.328 -0.248 -13.142
O -4.591 -1.734 -11.521
O -2.504 -0.569 -10.802
C -1.439 0.35 -10.948
C -0.406 0.22 -9.845
O -0.974 0.592 -8.594
C 0.15 -1.21 -9.685
O 1.557 -1.186 -9.904
C -0.233 -1.532 -8.236
C -0.288 -0.158 -7.605
N -1.003 -0.092 -6.297
C -0.356 0.502 -5.204
O 0.796 0.891 -5.234
N -1.097 0.625 -4.051
C -2.391 0.22 -3.882
O -2.948 0.432 -2.807
C -3.016 -0.444 -5.051
C -4.406 -0.989 -4.969
C -2.299 -0.553 -6.191
P 2.468 -2.494 -9.905
O 3.61 -2.259 -10.811
O 1.614 -3.675 -10.129
O 3.012 -2.535 -8.39
C 4.021 -1.647 -7.958
C 4.408 -1.863 -6.503
O 3.332 -1.478 -5.645
C 4.762 -3.325 -6.159
O 6.035 -3.351 -5.515
C 3.611 -3.713 -5.225
C 3.286 -2.391 -4.566
N 1.969 -2.341 -3.923
C 0.74 -2.687 -4.449
N -0.269 -2.429 -3.65
C 0.335 -1.88 -2.513
C -0.177 -1.372 -1.293
N -1.467 -1.304 -1.019
N 0.69 -0.929 -0.359
C 1.987 -0.976 -0.638
N 2.592 -1.401 -1.755
C 1.707 -1.841 -2.664
P 6.727 -4.695 -4.988
O 8.179 -4.47 -5.03
O 6.168 -5.859 -5.701
O 6.262 -4.769 -3.453
C 6.766 -3.855 -2.499
C 6.105 -4.018 -1.131
O 4.706 -3.739 -1.223
C 6.238 -5.431 -0.529
O 6.805 -5.342 0.773
C 4.773 -5.891 -0.475
C 4.064 -4.57 -0.272
N 2.595 -4.627 -0.501
C 1.718 -4.18 0.519
O 2.176 -3.775 1.592
N 0.375 -4.2 0.328
C -0.11 -4.643 -0.831
N -1.433 -4.626 -0.974
C 0.752 -5.128 -1.893
C 2.083 -5.096 -1.68
P 7.164 -6.597 1.681
O 8.338 -6.257 2.515
O 7.231 -7.791 0.81
O 5.872 -6.73 2.635
C 5.707 -5.915 3.776
C 4.483 -6.296 4.61
O 3.265 -5.939 3.941
C 4.389 -7.806 4.923
O 4.154 -8.023 6.31
C 3.164 -8.222 4.106
C 2.322 -6.964 4.186
N 1.224 -6.918 3.214
C 1.269 -7.173 1.86
N 0.111 -7.008 1.268
C -0.761 -6.629 2.297
C -2.156 -6.301 2.286
O -2.913 -6.272 1.323
N -2.654 -5.989 3.541
C -1.905 -5.978 4.679
N -2.566 -5.662 5.8
N -0.6 -6.267 4.713
C -0.092 -6.58 3.492
