120
./arbalign_output/seed-8_sample-4_model_chainA_pH74-aligned_to-215d_DNA_manual.xyz
O -8.623 -4.513 -4.806
C -9.523 -3.676 -5.529
C -9.126 -2.192 -5.461
O -9.146 -1.738 -4.108
C -7.717 -1.934 -6.008
O -7.772 -0.945 -7.03
C -6.927 -1.485 -4.801
C -7.976 -0.974 -3.842
N -7.563 -1.149 -2.426
C -7.435 -0.029 -1.584
O -7.662 1.108 -2.03
N -7.059 -0.192 -0.295
C -6.815 -1.424 0.153
N -6.444 -1.54 1.423
C -6.937 -2.585 -0.685
C -7.312 -2.402 -1.955
P -6.552 -0.544 -7.946
O -7.082 0.023 -9.206
O -5.62 -1.686 -8.013
O -5.861 0.641 -7.101
C -6.488 1.91 -6.983
C -5.644 2.926 -6.236
O -5.533 2.576 -4.858
C -4.219 3.074 -6.796
O -3.958 4.464 -6.953
C -3.378 2.421 -5.705
C -4.179 2.682 -4.439
N -3.957 1.719 -3.377
C -4.083 0.354 -3.469
N -3.968 -0.253 -2.326
C -3.743 0.772 -1.408
C -3.57 0.736 0.001
O -3.613 -0.24 0.73
N -3.345 1.985 0.551
C -3.296 3.134 -0.169
N -3.04 4.246 0.526
N -3.488 3.196 -1.485
C -3.709 1.987 -2.042
P -2.605 5.057 -7.528
O -2.907 6.38 -8.098
O -1.967 4.034 -8.375
O -1.702 5.262 -6.217
C -2.017 6.259 -5.259
C -1.147 6.183 -4.028
O -1.364 4.955 -3.349
C 0.358 6.268 -4.329
O 0.869 7.45 -3.74
C 0.898 4.998 -3.68
C -0.165 4.641 -2.668
N -0.182 3.223 -2.261
C -0.063 2.899 -0.911
O 0.149 3.722 -0.044
N -0.197 1.577 -0.59
C -0.425 0.56 -1.471
O -0.565 -0.58 -1.045
C -0.498 0.947 -2.891
C -0.702 -0.086 -3.95
C -0.384 2.249 -3.206
P 2.386 7.932 -3.896
O 2.414 9.405 -3.823
O 2.964 7.257 -5.07
O 3.079 7.341 -2.576
C 2.809 7.895 -1.3
C 3.632 7.255 -0.194
O 3.193 5.911 0.026
C 5.135 7.207 -0.496
O 5.835 7.704 0.645
C 5.372 5.72 -0.754
C 4.316 5.051 0.105
N 3.903 3.731 -0.369
C 3.571 3.357 -1.653
N 3.131 2.129 -1.752
C 3.178 1.656 -0.441
C 2.827 0.419 0.143
N 2.315 -0.588 -0.542
N 3.01 0.251 1.468
C 3.512 1.268 2.16
N 3.863 2.483 1.729
C 3.666 2.619 0.411
P 7.432 7.803 0.67
O 7.792 8.813 1.672
O 7.939 7.949 -0.707
O 7.864 6.357 1.203
C 7.619 5.969 2.544
C 7.884 4.489 2.777
O 6.998 3.696 1.978
C 9.299 4.034 2.399
O 10.068 3.812 3.572
C 9.055 2.736 1.623
C 7.6 2.415 1.884
N 6.994 1.614 0.786
C 6.506 0.314 1.041
O 6.583 -0.153 2.18
N 5.964 -0.423 0.043
C 5.895 0.096 -1.183
N 5.35 -0.659 -2.13
C 6.385 1.418 -1.485
C 6.918 2.128 -0.477
P 11.585 3.309 3.544
O 12.26 3.837 4.738
O 12.161 3.592 2.218
O 11.415 1.723 3.708
C 10.942 1.164 4.921
C 10.937 -0.358 4.915
O 9.978 -0.851 3.969
C 12.293 -0.965 4.535
O 12.575 -2.094 5.35
C 12.06 -1.385 3.088
C 10.604 -1.8 3.116
N 9.965 -1.764 1.796
C 9.949 -0.716 0.902
N 9.272 -0.981 -0.183
C 8.803 -2.293 0.002
C 8.009 -3.134 -0.83
O 7.528 -2.866 -1.93
N 7.777 -4.386 -0.283
C 8.246 -4.781 0.93
N 7.932 -6.031 1.295
N 8.986 -4.013 1.726
C 9.227 -2.783 1.207
