120
./arbalign_output/seed-8_sample-1_model_chainA_pH74-aligned_to-215d_DNA_manual.xyz
O 0.889 -5.506 -9.675
C 0.888 -6.942 -9.8
C 0.806 -7.665 -8.435
O 1.856 -7.235 -7.59
C -0.472 -7.347 -7.668
O -1.514 -8.246 -8.097
C -0.048 -7.636 -6.237
C 1.435 -7.389 -6.229
N 1.827 -6.19 -5.431
C 2.333 -6.369 -4.123
O 2.402 -7.507 -3.64
N 2.741 -5.298 -3.402
C 2.637 -4.076 -3.939
N 3.067 -3.052 -3.202
C 2.087 -3.864 -5.254
C 1.702 -4.942 -5.96
P -3.066 -8.031 -7.822
O -3.824 -9.111 -8.479
O -3.376 -6.631 -8.164
O -3.202 -8.2 -6.23
C -3.141 -9.469 -5.586
C -3.462 -9.396 -4.101
O -2.466 -8.65 -3.406
C -4.827 -8.75 -3.82
O -5.541 -9.541 -2.876
C -4.418 -7.377 -3.285
C -3.09 -7.652 -2.597
N -2.217 -6.474 -2.543
C -1.763 -5.756 -3.621
N -0.906 -4.825 -3.301
C -0.781 -4.915 -1.911
C 0.02 -4.177 -0.997
O 0.818 -3.293 -1.256
N -0.163 -4.564 0.321
C -1.014 -5.55 0.709
N -1.079 -5.768 2.022
N -1.756 -6.275 -0.135
C -1.595 -5.912 -1.429
P -7.079 -9.265 -2.453
O -7.604 -10.505 -1.852
O -7.797 -8.675 -3.598
O -6.954 -8.151 -1.303
C -6.48 -8.47 -0.01
C -6.268 -7.247 0.869
O -5.197 -6.457 0.356
C -7.502 -6.336 0.985
O -7.873 -6.216 2.353
C -6.988 -5.026 0.374
C -5.497 -5.105 0.651
N -4.664 -4.185 -0.177
C -3.716 -3.363 0.446
O -3.556 -3.322 1.647
N -2.957 -2.566 -0.378
C -3.049 -2.508 -1.741
O -2.295 -1.765 -2.357
C -4.072 -3.382 -2.354
C -4.282 -3.376 -3.837
C -4.816 -4.171 -1.547
P -9.144 -5.393 2.874
O -9.614 -6.026 4.12
O -10.099 -5.227 1.756
O -8.509 -3.957 3.222
C -7.706 -3.762 4.369
C -7.299 -2.306 4.581
O -6.327 -1.916 3.606
C -8.468 -1.31 4.488
O -8.447 -0.465 5.631
C -8.147 -0.565 3.187
C -6.634 -0.604 3.163
N -6.057 -0.394 1.831
C -6.356 -1.069 0.666
N -5.604 -0.725 -0.353
C -4.747 0.247 0.177
C -3.688 1.002 -0.381
N -3.281 0.864 -1.631
N -3.048 1.903 0.394
C -3.445 2.028 1.656
N -4.41 1.358 2.301
C -5.027 0.473 1.506
P -9.518 0.703 5.878
O -9.636 0.874 7.334
O -10.743 0.428 5.095
O -8.801 2.002 5.262
C -7.703 2.62 5.912
C -7.176 3.839 5.156
O -6.622 3.428 3.903
C -8.249 4.901 4.852
O -7.799 6.181 5.284
C -8.366 4.819 3.327
C -6.964 4.409 2.934
N -6.862 3.831 1.565
C -5.895 4.341 0.661
O -5.174 5.289 1.0
N -5.762 3.796 -0.573
C -6.549 2.777 -0.92
N -6.368 2.263 -2.13
C -7.56 2.241 -0.033
C -7.671 2.797 1.187
P -8.704 7.488 5.246
O -8.197 8.437 6.258
O -10.126 7.082 5.303
O -8.397 8.073 3.778
C -7.225 8.821 3.512
C -7.157 9.35 2.08
O -6.905 8.284 1.148
C -8.45 10.051 1.609
O -8.168 11.343 1.095
C -8.939 9.131 0.496
C -7.632 8.569 -0.033
N -7.778 7.36 -0.848
C -8.543 6.244 -0.591
N -8.427 5.32 -1.512
C -7.526 5.855 -2.441
C -6.997 5.32 -3.657
O -7.225 4.221 -4.162
N -6.133 6.188 -4.306
C -5.802 7.427 -3.835
N -4.954 8.13 -4.601
N -6.279 7.942 -2.699
C -7.132 7.107 -2.049
