120
./arbalign_output/seed-2_sample-1_model_chainA_pH74-aligned_to-215d_DNA_manual.xyz
O 11.172 1.753 -5.076
C 9.968 2.435 -4.783
C 8.939 2.331 -5.893
O 8.462 0.989 -6.018
C 7.723 3.212 -5.602
O 7.364 3.934 -6.763
C 6.676 2.214 -5.163
C 7.041 0.968 -5.923
N 6.568 -0.254 -5.23
C 5.652 -1.116 -5.881
O 5.244 -0.837 -7.031
N 5.219 -2.242 -5.253
C 5.667 -2.514 -4.02
N 5.212 -3.628 -3.445
C 6.599 -1.654 -3.334
C 7.02 -0.55 -3.974
P 6.354 5.152 -6.777
O 6.763 6.125 -7.808
O 6.198 5.62 -5.39
O 4.984 4.454 -7.235
C 4.764 4.075 -8.585
C 3.333 3.677 -8.872
O 3.021 2.435 -8.247
C 2.303 4.711 -8.397
O 1.304 4.849 -9.405
C 1.789 4.061 -7.119
C 1.87 2.571 -7.425
N 2.048 1.718 -6.257
C 3.064 1.794 -5.338
N 3.067 0.811 -4.484
C 1.977 0.025 -4.849
C 1.487 -1.2 -4.316
O 1.961 -1.86 -3.401
N 0.347 -1.656 -4.955
C -0.251 -1.013 -5.995
N -1.359 -1.586 -6.478
N 0.209 0.117 -6.534
C 1.325 0.582 -5.92
P 0.119 5.918 -9.294
O -0.357 6.197 -10.659
O 0.549 7.042 -8.446
O -1.018 5.105 -8.51
C -1.714 4.036 -9.127
C -2.613 3.293 -8.162
O -1.832 2.649 -7.157
C -3.628 4.195 -7.44
O -4.936 3.753 -7.764
C -3.265 3.971 -5.965
C -2.619 2.606 -5.981
N -1.758 2.298 -4.814
C -1.979 1.119 -4.097
O -2.906 0.363 -4.322
N -1.085 0.843 -3.095
C -0.017 1.617 -2.736
O 0.734 1.23 -1.849
C 0.146 2.871 -3.493
C 1.251 3.813 -3.151
C -0.719 3.137 -4.491
P -6.263 4.56 -7.306
O -7.32 4.29 -8.306
O -5.905 5.96 -7.013
O -6.65 3.835 -5.925
C -7.253 2.555 -5.925
C -7.58 2.064 -4.524
O -6.376 1.744 -3.809
C -8.354 3.087 -3.675
O -9.497 2.428 -3.134
C -7.319 3.476 -2.614
C -6.493 2.211 -2.478
N -5.146 2.417 -1.939
C -4.224 3.363 -2.314
N -3.063 3.244 -1.715
C -3.239 2.133 -0.887
C -2.374 1.463 0.011
N -1.108 1.815 0.206
N -2.852 0.406 0.703
C -4.112 0.043 0.499
N -5.013 0.581 -0.328
C -4.513 1.626 -1.001
P -10.533 3.173 -2.132
O -11.826 2.495 -2.276
O -10.461 4.634 -2.328
O -9.921 2.828 -0.69
C -9.911 1.495 -0.207
C -9.147 1.366 1.104
O -7.774 1.73 0.919
C -9.69 2.259 2.229
O -10.11 1.425 3.302
C -8.465 3.105 2.611
C -7.313 2.232 2.166
N -6.033 2.957 1.975
C -4.882 2.537 2.675
O -4.952 1.595 3.467
N -3.7 3.171 2.484
C -3.638 4.19 1.628
N -2.453 4.765 1.458
C -4.796 4.659 0.907
C -5.957 4.015 1.11
P -10.82 1.991 4.629
O -11.704 0.937 5.157
O -11.393 3.322 4.349
O -9.567 2.166 5.617
C -8.958 1.037 6.222
C -7.826 1.42 7.157
O -6.702 1.925 6.418
C -8.212 2.509 8.169
O -7.792 2.125 9.475
C -7.411 3.711 7.67
C -6.18 3.035 7.12
N -5.386 3.877 6.223
C -5.812 4.621 5.145
N -4.836 5.244 4.541
C -3.691 4.893 5.261
C -2.314 5.249 5.087
O -1.825 5.965 4.218
N -1.483 4.69 6.042
C -1.912 3.874 7.045
N -0.966 3.433 7.883
N -3.182 3.517 7.225
C -4.016 4.06 6.298
