120
./arbalign_output/seed-9_sample-4_model_chainA_pH74-aligned_to-215d_DNA_manual.xyz
O -1.132 6.067 10.228
C -2.173 6.996 10.491
C -3.011 7.296 9.244
O -2.185 7.861 8.229
C -3.667 6.039 8.654
O -5.035 6.314 8.361
C -2.836 5.758 7.416
C -2.363 7.14 7.005
N -1.086 7.107 6.249
C -1.027 7.671 4.946
O -2.048 8.173 4.442
N 0.139 7.652 4.25
C 1.222 7.1 4.812
N 2.347 7.106 4.091
C 1.192 6.516 6.135
C 0.028 6.546 6.809
P -6.139 5.218 8.014
O -7.482 5.745 8.365
O -5.702 3.94 8.602
O -6.022 5.112 6.413
C -6.58 6.112 5.573
C -6.478 5.771 4.093
O -5.128 5.88 3.643
C -6.968 4.357 3.756
O -7.894 4.447 2.673
C -5.669 3.649 3.378
C -4.825 4.77 2.802
N -3.379 4.534 2.833
C -2.606 4.263 3.944
N -1.323 4.269 3.698
C -1.229 4.55 2.331
C -0.091 4.729 1.487
O 1.091 4.703 1.801
N -0.429 4.973 0.164
C -1.713 5.046 -0.293
N -1.845 5.26 -1.609
N -2.792 4.921 0.483
C -2.486 4.683 1.782
P -8.7 3.188 2.088
O -9.944 3.701 1.481
O -8.798 2.144 3.131
O -7.741 2.647 0.919
C -7.553 3.392 -0.271
C -6.502 2.788 -1.19
O -5.222 2.839 -0.565
C -6.768 1.317 -1.561
O -6.93 1.22 -2.97
C -5.508 0.62 -1.045
C -4.479 1.728 -1.04
N -3.304 1.504 -0.16
C -2.02 1.629 -0.707
O -1.809 1.813 -1.894
N -0.972 1.533 0.179
C -1.075 1.314 1.526
O -0.053 1.297 2.211
C -2.451 1.13 2.045
C -2.684 0.825 3.489
C -3.481 1.248 1.183
P -7.31 -0.145 -3.727
O -8.069 0.206 -4.943
O -7.917 -1.084 -2.755
O -5.869 -0.727 -4.157
C -5.137 -0.147 -5.219
C -3.821 -0.865 -5.507
O -2.885 -0.638 -4.444
C -3.968 -2.388 -5.676
O -3.354 -2.769 -6.905
C -3.243 -2.92 -4.437
C -2.206 -1.85 -4.155
N -1.731 -1.8 -2.768
C -2.481 -1.839 -1.612
N -1.783 -1.667 -0.517
C -0.471 -1.514 -0.978
C 0.761 -1.281 -0.321
N 0.867 -1.134 0.992
N 1.89 -1.202 -1.059
C 1.783 -1.334 -2.376
N 0.685 -1.533 -3.113
C -0.421 -1.61 -2.352
P -3.263 -4.309 -7.403
O -3.196 -4.284 -8.868
O -4.318 -5.125 -6.756
O -1.837 -4.779 -6.82
C -0.631 -4.218 -7.313
C 0.589 -4.642 -6.497
O 0.458 -4.205 -5.135
C 0.822 -6.163 -6.456
O 2.125 -6.441 -6.948
C 0.691 -6.478 -4.96
C 1.104 -5.168 -4.316
N 0.679 -5.008 -2.895
C 1.641 -4.701 -1.902
O 2.832 -4.593 -2.211
N 1.262 -4.53 -0.61
C -0.025 -4.654 -0.29
N -0.352 -4.465 0.985
C -1.035 -4.977 -1.274
C -0.635 -5.139 -2.549
P 2.744 -7.919 -7.083
O 3.635 -7.939 -8.259
O 1.65 -8.908 -7.01
O 3.635 -8.028 -5.748
C 4.843 -7.297 -5.612
C 5.586 -7.62 -4.321
O 4.865 -7.135 -3.177
C 5.811 -9.126 -4.103
O 7.149 -9.368 -3.689
C 4.828 -9.433 -2.972
C 4.872 -8.142 -2.177
N 3.73 -7.949 -1.277
C 2.389 -7.969 -1.59
N 1.616 -7.695 -0.569
C 2.5 -7.48 0.495
C 2.266 -7.134 1.862
O 1.186 -6.92 2.414
N 3.433 -7.026 2.608
C 4.685 -7.227 2.097
N 5.696 -7.1 2.966
N 4.928 -7.538 0.823
C 3.795 -7.646 0.079
