120
./arbalign_output/seed-10_sample-0_model_chainA_pH74-aligned_to-215d_DNA_manual.xyz
O 8.932 -2.22 -9.324
C 8.612 -2.849 -10.557
C 7.191 -3.444 -10.554
O 7.06 -4.421 -9.523
C 6.087 -2.397 -10.332
O 5.063 -2.561 -11.309
C 5.614 -2.69 -8.917
C 5.855 -4.183 -8.798
N 5.993 -4.652 -7.383
C 5.111 -5.647 -6.878
O 4.229 -6.125 -7.613
N 5.227 -6.07 -5.592
C 6.177 -5.534 -4.815
N 6.253 -5.976 -3.557
C 7.086 -4.522 -5.295
C 6.961 -4.118 -6.575
P 3.833 -1.548 -11.528
O 3.398 -1.593 -12.942
O 4.222 -0.252 -10.945
O 2.682 -2.206 -10.611
C 1.981 -3.374 -11.02
C 0.884 -3.783 -10.047
O 1.441 -4.24 -8.819
C -0.1 -2.642 -9.72
O -1.434 -3.128 -9.887
C 0.248 -2.345 -8.262
C 0.668 -3.711 -7.745
N 1.484 -3.668 -6.53
C 2.729 -3.086 -6.385
N 3.295 -3.344 -5.235
C 2.368 -4.14 -4.558
C 2.429 -4.764 -3.277
O 3.364 -4.754 -2.48
N 1.271 -5.457 -2.951
C 0.183 -5.552 -3.771
N -0.853 -6.24 -3.281
N 0.117 -5.009 -4.993
C 1.24 -4.321 -5.33
P -2.753 -2.213 -9.732
O -3.826 -2.794 -10.57
O -2.371 -0.801 -9.947
O -3.156 -2.406 -8.189
C -3.704 -3.624 -7.718
C -3.913 -3.624 -6.212
O -2.659 -3.521 -5.549
C -4.808 -2.472 -5.706
O -5.876 -3.019 -4.937
C -3.817 -1.658 -4.872
C -2.86 -2.729 -4.387
N -1.552 -2.239 -3.881
C -1.101 -2.697 -2.636
O -1.773 -3.389 -1.894
N 0.172 -2.325 -2.272
C 1.021 -1.548 -3.007
O 2.153 -1.341 -2.581
C 0.479 -1.038 -4.289
C 1.292 -0.13 -5.153
C -0.763 -1.421 -4.66
P -7.064 -2.125 -4.309
O -8.304 -2.932 -4.297
O -7.082 -0.809 -4.985
O -6.569 -1.908 -2.791
C -6.685 -2.945 -1.831
C -6.226 -2.517 -0.438
O -4.804 -2.339 -0.416
C -6.861 -1.198 0.052
O -7.426 -1.416 1.346
C -5.655 -0.253 0.068
C -4.503 -1.19 0.359
N -3.186 -0.671 -0.031
C -2.82 -0.102 -1.236
N -1.539 0.176 -1.324
C -1.024 -0.24 -0.092
C 0.282 -0.244 0.457
N 1.353 0.172 -0.213
N 0.461 -0.698 1.714
C -0.605 -1.13 2.379
N -1.876 -1.202 1.97
C -2.025 -0.743 0.716
P -8.137 -0.236 2.215
O -9.187 -0.859 3.036
O -8.511 0.895 1.333
O -6.943 0.242 3.172
C -6.433 -0.62 4.18
C -5.184 -0.046 4.858
O -4.145 0.17 3.898
C -5.419 1.297 5.575
O -4.908 1.208 6.908
C -4.599 2.269 4.714
C -3.473 1.371 4.244
N -2.711 1.904 3.078
C -1.299 1.992 3.151
O -0.715 1.661 4.19
N -0.584 2.441 2.085
C -1.226 2.794 0.974
N -0.483 3.212 -0.046
C -2.666 2.732 0.864
C -3.355 2.279 1.932
P -4.992 2.37 8.005
O -5.269 1.762 9.324
O -5.906 3.42 7.504
O -3.491 2.946 8.001
C -2.424 2.231 8.609
C -1.121 3.027 8.629
O -0.586 3.181 7.306
C -1.272 4.447 9.208
O -0.177 4.739 10.078
C -1.206 5.307 7.948
C -0.207 4.534 7.116
N -0.223 4.856 5.689
C -1.299 4.837 4.825
N -0.966 5.104 3.588
C 0.419 5.318 3.628
C 1.359 5.627 2.595
O 1.143 5.757 1.391
N 2.656 5.779 3.066
C 3.016 5.644 4.379
N 4.312 5.845 4.654
N 2.158 5.336 5.353
C 0.882 5.185 4.912
