120
./arbalign_output/seed-1_sample-1_model_chainA_pH74-aligned_to-215d_DNA_manual.xyz
O -5.996 -4.381 7.9
C -5.361 -4.903 9.061
C -3.833 -4.744 9.001
O -3.293 -5.527 7.95
C -3.406 -3.292 8.749
O -2.588 -2.849 9.819
C -2.672 -3.348 7.425
C -2.231 -4.791 7.343
N -2.029 -5.213 5.931
C -0.727 -5.504 5.455
O 0.243 -5.419 6.223
N -0.539 -5.876 4.164
C -1.596 -5.966 3.353
N -1.363 -6.334 2.093
C -2.932 -5.677 3.805
C -3.1 -5.312 5.09
P -2.213 -1.338 10.1
O -2.094 -1.11 11.557
O -3.132 -0.49 9.314
O -0.754 -1.244 9.44
C 0.393 -1.785 10.083
C 1.693 -1.314 9.46
O 1.865 -1.883 8.164
C 1.772 0.211 9.309
O 3.093 0.634 9.652
C 1.449 0.394 7.833
C 2.049 -0.849 7.203
N 1.41 -1.255 5.955
C 0.104 -1.649 5.794
N -0.157 -2.119 4.603
C 1.049 -2.027 3.916
C 1.399 -2.418 2.594
O 0.687 -2.965 1.763
N 2.718 -2.133 2.275
C 3.599 -1.547 3.134
N 4.827 -1.327 2.646
N 3.3 -1.201 4.392
C 2.014 -1.472 4.723
P 3.451 2.193 9.76
O 4.688 2.293 10.554
O 2.266 2.959 10.189
O 3.78 2.59 8.24
C 4.975 2.167 7.618
C 5.016 2.512 6.138
O 4.042 1.753 5.422
C 4.744 3.999 5.837
O 5.856 4.534 5.132
C 3.472 3.921 4.985
C 3.607 2.556 4.34
N 2.359 2.0 3.746
C 2.4 1.497 2.44
O 3.389 1.544 1.734
N 1.24 0.933 1.968
C 0.065 0.825 2.65
O -0.888 0.27 2.113
C 0.059 1.399 4.011
C -1.186 1.378 4.837
C 1.202 1.942 4.483
P 5.951 6.086 4.726
O 7.382 6.45 4.722
O 5.012 6.877 5.55
O 5.404 6.081 3.213
C 6.215 5.624 2.151
C 5.551 5.775 0.786
O 4.491 4.819 0.631
C 4.942 7.169 0.542
O 5.453 7.69 -0.68
C 3.442 6.854 0.474
C 3.428 5.442 -0.069
N 2.176 4.724 0.184
C 1.508 4.579 1.383
N 0.439 3.824 1.308
C 0.399 3.439 -0.036
C -0.488 2.621 -0.777
N -1.534 2.007 -0.239
N -0.269 2.453 -2.097
C 0.779 3.059 -2.637
N 1.695 3.841 -2.047
C 1.45 3.99 -0.737
P 5.005 9.123 -1.261
O 6.16 9.655 -1.997
O 4.402 9.939 -0.187
O 3.853 8.745 -2.314
C 4.168 8.058 -3.51
C 2.921 7.703 -4.316
O 2.064 6.846 -3.555
C 2.081 8.923 -4.732
O 1.763 8.823 -6.119
C 0.833 8.758 -3.854
C 0.723 7.249 -3.791
N -0.176 6.746 -2.718
C -1.198 5.826 -3.05
O -1.347 5.472 -4.225
N -2.017 5.34 -2.085
C -1.844 5.734 -0.825
N -2.665 5.22 0.087
C -0.818 6.68 -0.447
C -0.015 7.149 -1.421
P 0.953 9.95 -6.908
O 1.375 9.893 -8.327
O 1.07 11.232 -6.186
O -0.564 9.432 -6.801
C -1.052 8.398 -7.634
C -2.548 8.159 -7.461
O -2.842 7.52 -6.212
C -3.383 9.457 -7.497
O -4.461 9.323 -8.408
C -3.906 9.54 -6.063
C -4.048 8.074 -5.721
N -4.215 7.797 -4.293
C -3.482 8.29 -3.232
N -3.874 7.814 -2.075
C -4.935 6.953 -2.391
C -5.765 6.136 -1.561
O -5.712 5.999 -0.341
N -6.728 5.432 -2.278
C -6.869 5.496 -3.634
N -7.857 4.755 -4.15
N -6.103 6.245 -4.424
C -5.156 6.945 -3.743
