120
./arbalign_output/seed-7_sample-2_model_chainA_pH74-aligned_to-215d_DNA_manual.xyz
O -1.643 -6.043 -8.58
C -2.185 -5.614 -9.819
C -2.601 -4.146 -9.773
O -3.627 -3.954 -8.8
C -1.442 -3.21 -9.403
O -1.411 -2.101 -10.292
C -1.772 -2.804 -7.978
C -3.293 -2.827 -7.991
N -3.868 -2.976 -6.631
C -4.638 -1.926 -6.078
O -4.839 -0.893 -6.743
N -5.149 -2.042 -4.824
C -4.922 -3.163 -4.132
N -5.438 -3.225 -2.898
C -4.151 -4.253 -4.672
C -3.647 -4.117 -5.915
P -0.213 -1.066 -10.407
O -0.101 -0.57 -11.796
O 0.961 -1.692 -9.778
O -0.713 0.141 -9.474
C -1.698 1.067 -9.919
C -1.746 2.322 -9.075
O -2.359 2.064 -7.815
C -0.364 2.936 -8.808
O -0.463 4.353 -8.934
C -0.1 2.477 -7.38
C -1.493 2.463 -6.762
N -1.665 1.512 -5.668
C -1.543 0.151 -5.767
N -1.89 -0.484 -4.683
C -2.263 0.517 -3.793
C -2.757 0.435 -2.466
O -2.991 -0.576 -1.82
N -3.001 1.675 -1.903
C -2.792 2.856 -2.549
N -3.061 3.959 -1.839
N -2.356 2.957 -3.805
C -2.111 1.753 -4.373
P 0.822 5.32 -8.812
O 0.469 6.62 -9.412
O 2.004 4.601 -9.311
O 0.975 5.52 -7.234
C 0.06 6.309 -6.494
C 0.297 6.206 -4.999
O 0.014 4.886 -4.541
C 1.738 6.533 -4.575
O 1.695 7.584 -3.619
C 2.199 5.199 -3.981
C 0.892 4.626 -3.465
N 0.898 3.178 -3.149
C 0.399 2.76 -1.915
O 0.023 3.527 -1.054
N 0.355 1.406 -1.703
C 0.751 0.442 -2.582
O 0.625 -0.741 -2.273
C 1.303 0.93 -3.859
C 1.809 -0.037 -4.881
C 1.337 2.262 -4.074
P 3.026 8.25 -3.017
O 2.732 9.66 -2.686
O 4.154 7.949 -3.92
O 3.231 7.424 -1.657
C 2.452 7.707 -0.51
C 2.899 6.91 0.709
O 2.505 5.536 0.585
C 4.424 6.927 0.935
O 4.671 7.361 2.272
C 4.801 5.459 0.7
C 3.541 4.724 1.107
N 3.408 3.378 0.547
C 3.557 2.989 -0.766
N 3.288 1.727 -0.984
C 2.937 1.247 0.277
C 2.523 -0.025 0.737
N 2.368 -1.074 -0.063
N 2.263 -0.191 2.049
C 2.408 0.86 2.847
N 2.773 2.111 2.534
C 3.018 2.242 1.224
P 6.163 7.474 2.87
O 6.148 8.545 3.878
O 7.143 7.544 1.766
O 6.343 6.074 3.617
C 5.587 5.778 4.78
C 5.779 4.334 5.225
O 5.339 3.433 4.201
C 7.235 3.968 5.545
O 7.288 3.38 6.841
C 7.564 2.946 4.45
C 6.205 2.311 4.228
N 6.092 1.53 2.967
C 5.628 0.197 3.024
O 5.332 -0.301 4.114
N 5.519 -0.538 1.889
C 5.842 0.012 0.722
N 5.716 -0.746 -0.358
C 6.319 1.369 0.621
C 6.42 2.08 1.759
P 8.63 2.876 7.545
O 8.518 3.136 8.993
O 9.786 3.425 6.813
O 8.562 1.295 7.297
C 7.648 0.484 8.018
C 7.811 -1.0 7.709
O 7.402 -1.3 6.369
C 9.26 -1.496 7.85
O 9.283 -2.728 8.563
C 9.661 -1.718 6.389
C 8.351 -2.194 5.806
N 8.291 -2.139 4.345
C 8.529 -1.054 3.525
N 8.355 -1.326 2.258
C 7.98 -2.673 2.234
C 7.647 -3.535 1.149
O 7.609 -3.258 -0.049
N 7.34 -4.827 1.552
C 7.342 -5.241 2.854
N 7.035 -6.531 3.053
N 7.641 -4.45 3.882
C 7.945 -3.182 3.508
