120
./arbalign_output/seed-5_sample-1_model_chainA_pH74-aligned_to-215d_DNA_manual.xyz
O 2.856 -10.655 -3.99
C 1.844 -11.624 -4.291
C 0.438 -11.037 -4.083
O 0.216 -10.753 -2.704
C 0.237 -9.73 -4.859
O -0.918 -9.846 -5.677
C 0.11 -8.673 -3.776
C -0.354 -9.454 -2.567
N 0.104 -8.822 -1.293
C -0.838 -8.39 -0.326
O -2.053 -8.517 -0.544
N -0.411 -7.829 0.833
C 0.902 -7.694 1.044
N 1.276 -7.14 2.196
C 1.884 -8.114 0.081
C 1.443 -8.672 -1.062
P -1.304 -8.849 -6.827
O -2.054 -9.571 -7.877
O -0.09 -8.107 -7.204
O -2.296 -7.844 -6.068
C -3.63 -8.214 -5.744
C -4.452 -7.064 -5.2
O -4.021 -6.705 -3.894
C -4.373 -5.811 -6.083
O -5.683 -5.267 -6.238
C -3.447 -4.92 -5.264
C -3.787 -5.306 -3.835
N -2.711 -5.042 -2.887
C -1.431 -5.539 -2.939
N -0.728 -5.262 -1.877
C -1.589 -4.525 -1.06
C -1.408 -3.977 0.241
O -0.428 -4.07 0.96
N -2.515 -3.278 0.699
C -3.665 -3.134 -0.013
N -4.618 -2.406 0.567
N -3.869 -3.668 -1.219
C -2.799 -4.357 -1.685
P -5.998 -4.034 -7.199
O -7.441 -4.071 -7.514
O -5.03 -4.012 -8.312
O -5.708 -2.767 -6.264
C -6.594 -2.402 -5.219
C -6.052 -1.268 -4.372
O -4.902 -1.699 -3.655
C -5.644 -0.025 -5.185
O -6.369 1.1 -4.71
C -4.141 0.055 -4.9
C -4.054 -0.575 -3.522
N -2.689 -0.988 -3.116
C -2.219 -0.606 -1.853
O -2.849 0.091 -1.084
N -0.974 -1.061 -1.503
C -0.16 -1.842 -2.277
O 0.924 -2.204 -1.829
C -0.685 -2.193 -3.613
C 0.141 -3.0 -4.566
C -1.915 -1.757 -3.955
P -6.261 2.548 -5.373
O -7.545 3.244 -5.155
O -5.752 2.415 -6.755
O -5.12 3.255 -4.485
C -5.398 3.741 -3.187
C -4.207 4.454 -2.558
O -3.196 3.512 -2.191
C -3.544 5.494 -3.484
O -3.479 6.74 -2.803
C -2.166 4.87 -3.721
C -1.934 4.106 -2.435
N -0.91 3.067 -2.539
C -0.809 2.068 -3.481
N 0.179 1.232 -3.263
C 0.772 1.717 -2.094
C 1.863 1.272 -1.313
N 2.563 0.179 -1.596
N 2.215 1.984 -0.222
C 1.509 3.071 0.069
N 0.453 3.582 -0.576
C 0.124 2.85 -1.652
P -2.842 8.048 -3.466
O -3.5 9.206 -2.849
O -2.863 7.925 -4.94
O -1.313 7.997 -2.981
C -0.966 8.254 -1.631
C 0.53 8.102 -1.388
O 0.927 6.741 -1.57
C 1.402 8.952 -2.329
O 2.278 9.766 -1.563
C 2.155 7.879 -3.125
C 2.235 6.754 -2.119
N 2.573 5.441 -2.724
C 3.652 4.687 -2.201
O 4.315 5.133 -1.255
N 3.967 3.481 -2.74
C 3.245 3.017 -3.761
N 3.582 1.827 -4.245
C 2.143 3.761 -4.327
C 1.848 4.953 -3.775
P 3.249 10.838 -2.222
O 3.527 11.892 -1.225
O 2.703 11.235 -3.536
O 4.586 9.977 -2.46
C 5.452 9.651 -1.388
C 6.667 8.84 -1.831
O 6.299 7.498 -2.192
C 7.389 9.435 -3.054
O 8.767 9.611 -2.779
C 7.18 8.354 -4.112
C 7.152 7.105 -3.251
N 6.648 5.917 -3.947
C 5.516 5.8 -4.726
N 5.356 4.597 -5.215
C 6.45 3.869 -4.726
C 6.835 2.503 -4.915
O 6.252 1.639 -5.562
N 8.017 2.174 -4.263
C 8.743 3.052 -3.509
N 9.864 2.559 -2.97
N 8.4 4.328 -3.321
C 7.247 4.67 -3.952
