120
./arbalign_output/seed-10_sample-1_model_chainA_pH74-aligned_to-215d_DNA_manual.xyz
O 2.414 11.087 -2.941
C 2.547 11.227 -4.355
C 2.331 9.906 -5.099
O 3.291 8.938 -4.681
C 0.939 9.3 -4.862
O 0.354 8.979 -6.122
C 1.234 8.079 -4.013
C 2.629 7.696 -4.465
N 3.37 6.889 -3.461
C 3.803 5.584 -3.791
O 3.561 5.117 -4.916
N 4.475 4.843 -2.876
C 4.719 5.363 -1.671
N 5.383 4.596 -0.809
C 4.292 6.689 -1.308
C 3.629 7.41 -2.227
P -1.178 8.501 -6.352
O -1.726 9.116 -7.578
O -1.905 8.683 -5.079
O -0.989 6.925 -6.616
C -0.425 6.437 -7.827
C -0.588 4.934 -7.987
O 0.206 4.231 -7.024
C -2.034 4.448 -7.815
O -2.282 3.431 -8.788
C -2.027 3.927 -6.385
C -0.614 3.382 -6.227
N -0.107 3.415 -4.857
C -0.074 4.502 -4.012
N 0.556 4.273 -2.897
C 0.97 2.942 -2.996
C 1.722 2.132 -2.105
O 2.212 2.456 -1.031
N 1.901 0.838 -2.57
C 1.421 0.376 -3.759
N 1.666 -0.906 -4.035
N 0.74 1.125 -4.627
C 0.55 2.395 -4.185
P -3.685 2.64 -8.913
O -3.808 2.157 -10.302
O -4.751 3.491 -8.354
O -3.482 1.369 -7.953
C -2.551 0.351 -8.272
C -2.427 -0.699 -7.176
O -1.906 -0.117 -5.983
C -3.759 -1.376 -6.799
O -3.599 -2.782 -6.944
C -3.941 -0.954 -5.342
C -2.509 -0.765 -4.882
N -2.33 0.059 -3.665
C -1.599 -0.465 -2.599
O -1.181 -1.609 -2.571
N -1.367 0.391 -1.55
C -1.788 1.684 -1.458
O -1.474 2.354 -0.479
C -2.592 2.171 -2.589
C -3.15 3.558 -2.568
C -2.81 1.342 -3.627
P -4.77 -3.87 -6.696
O -4.679 -4.897 -7.754
O -6.046 -3.156 -6.505
O -4.34 -4.541 -5.299
C -3.187 -5.37 -5.215
C -3.008 -5.986 -3.829
O -2.714 -4.96 -2.869
C -4.244 -6.741 -3.316
O -3.797 -7.953 -2.697
C -4.851 -5.743 -2.336
C -3.63 -5.018 -1.786
N -3.885 -3.648 -1.348
C -4.598 -2.667 -1.991
N -4.562 -1.5 -1.398
C -3.768 -1.729 -0.278
C -3.323 -0.889 0.767
N -3.608 0.406 0.833
N -2.558 -1.421 1.742
C -2.26 -2.713 1.671
N -2.598 -3.6 0.733
C -3.355 -3.04 -0.226
P -4.812 -9.003 -1.958
O -4.224 -10.346 -2.07
O -6.184 -8.775 -2.452
O -4.742 -8.532 -0.423
C -3.554 -8.71 0.334
C -3.653 -8.079 1.723
O -3.842 -6.661 1.611
C -4.814 -8.617 2.575
O -4.296 -9.059 3.83
C -5.716 -7.388 2.727
C -4.719 -6.247 2.646
N -5.314 -4.927 2.302
C -5.03 -3.801 3.105
O -4.329 -3.93 4.115
N -5.533 -2.587 2.777
C -6.294 -2.469 1.689
N -6.749 -1.257 1.4
C -6.616 -3.596 0.852
C -6.104 -4.791 1.196
P -5.19 -9.724 5.009
O -4.418 -10.809 5.634
O -6.532 -10.024 4.473
O -5.308 -8.508 6.053
C -4.168 -8.078 6.787
C -4.495 -6.974 7.786
O -4.872 -5.764 7.104
C -5.654 -7.324 8.73
O -5.36 -6.875 10.055
C -6.808 -6.522 8.134
C -6.101 -5.286 7.632
N -6.832 -4.568 6.578
C -7.354 -5.084 5.411
N -7.903 -4.18 4.647
C -7.737 -2.982 5.35
C -8.117 -1.646 5.03
O -8.687 -1.248 4.013
N -7.776 -0.73 6.018
C -7.134 -1.058 7.175
N -6.895 -0.045 8.023
N -6.762 -2.298 7.491
C -7.089 -3.208 6.537
