120
./arbalign_output/seed-5_sample-4_model_chainA_pH74-aligned_to-215d_DNA_manual.xyz
O 10.65 -1.57 -5.351
C 11.565 -0.491 -5.296
C 11.078 0.694 -4.444
O 9.906 1.27 -5.008
C 10.727 0.298 -3.0
O 11.632 0.944 -2.11
C 9.285 0.768 -2.835
C 9.116 1.787 -3.939
N 7.702 1.942 -4.369
C 7.062 3.194 -4.259
O 7.677 4.156 -3.774
N 5.782 3.341 -4.675
C 5.141 2.283 -5.184
N 3.889 2.472 -5.588
C 5.765 0.99 -5.297
C 7.035 0.866 -4.883
P 11.76 0.619 -0.56
O 13.137 0.923 -0.102
O 11.214 -0.73 -0.323
O 10.753 1.701 0.075
C 11.122 3.063 0.229
C 10.111 3.871 1.022
O 8.911 4.052 0.275
C 9.736 3.22 2.37
O 9.8 4.221 3.388
C 8.324 2.718 2.094
C 7.789 3.74 1.094
N 6.713 3.24 0.249
C 6.729 2.106 -0.525
N 5.683 1.99 -1.296
C 4.908 3.12 -1.013
C 3.671 3.571 -1.558
O 3.016 3.054 -2.447
N 3.218 4.748 -0.984
C 3.881 5.416 -0.001
N 3.287 6.522 0.454
N 5.053 5.031 0.503
C 5.515 3.884 -0.047
P 9.497 3.922 4.939
O 10.186 4.955 5.737
O 9.751 2.502 5.238
O 7.917 4.184 5.031
C 7.37 5.482 4.882
C 5.858 5.477 4.835
O 5.402 4.782 3.681
C 5.207 4.807 6.06
O 4.363 5.753 6.7
C 4.444 3.647 5.419
C 4.17 4.176 4.027
N 3.802 3.138 3.027
C 2.638 3.311 2.272
O 1.868 4.23 2.439
N 2.388 2.369 1.31
C 3.165 1.283 1.034
O 2.84 0.534 0.123
C 4.365 1.123 1.879
C 5.274 -0.05 1.7
C 4.624 2.058 2.817
P 3.588 5.441 8.068
O 3.376 6.728 8.766
O 4.271 4.344 8.78
O 2.173 4.89 7.53
C 1.189 5.765 7.027
C -0.115 5.068 6.672
O 0.041 4.294 5.477
C -0.626 4.111 7.769
O -1.921 4.525 8.173
C -0.627 2.755 7.054
C -0.773 3.137 5.596
N -0.283 2.122 4.664
C 0.961 1.534 4.638
N 1.146 0.729 3.621
C -0.067 0.788 2.927
C -0.524 0.177 1.736
N 0.231 -0.624 1.0
N -1.783 0.417 1.322
C -2.533 1.231 2.051
N -2.212 1.883 3.177
C -0.955 1.623 3.563
P -2.754 3.751 9.316
O -3.647 4.745 9.938
O -1.846 2.975 10.185
O -3.639 2.728 8.456
C -4.684 3.194 7.613
C -5.329 2.071 6.816
O -4.377 1.498 5.917
C -5.874 0.928 7.694
O -7.255 0.75 7.434
C -5.037 -0.271 7.234
C -4.666 0.11 5.816
N -3.484 -0.615 5.295
C -3.574 -1.318 4.067
O -4.646 -1.35 3.454
N -2.489 -1.957 3.565
C -1.343 -1.915 4.239
N -0.304 -2.542 3.704
C -1.214 -1.222 5.501
C -2.301 -0.591 5.977
P -8.173 -0.268 8.261
O -9.556 0.253 8.264
O -7.532 -0.57 9.557
O -8.108 -1.572 7.324
C -8.84 -1.642 6.11
C -8.679 -2.979 5.395
O -7.346 -3.123 4.876
C -8.932 -4.193 6.305
O -9.804 -5.117 5.664
C -7.534 -4.783 6.461
C -6.915 -4.451 5.119
N -5.449 -4.515 5.103
C -4.562 -3.954 6.0
N -3.311 -4.174 5.688
C -3.372 -4.932 4.51
C -2.336 -5.476 3.683
O -1.121 -5.372 3.834
N -2.819 -6.187 2.599
C -4.145 -6.354 2.325
N -4.419 -7.08 1.239
N -5.129 -5.854 3.075
C -4.674 -5.152 4.148
