120
./arbalign_output/seed-1_sample-4_model_chainA_pH74-aligned_to-215d_DNA_manual.xyz
O -9.08 8.224 4.409
C -8.875 8.954 5.62
C -7.522 8.637 6.274
O -7.489 7.29 6.734
C -6.345 8.818 5.315
O -5.482 9.822 5.836
C -5.701 7.441 5.251
C -6.187 6.759 6.507
N -6.236 5.273 6.36
C -5.332 4.461 7.087
O -4.488 4.985 7.826
N -5.382 3.112 6.97
C -6.297 2.572 6.163
N -6.316 1.241 6.085
C -7.226 3.375 5.407
C -7.162 4.711 5.536
P -4.329 10.52 5.013
O -3.976 11.814 5.642
O -4.685 10.493 3.581
O -3.133 9.484 5.263
C -2.496 9.382 6.53
C -1.352 8.394 6.527
O -1.84 7.056 6.462
C -0.397 8.598 5.343
O 0.913 8.807 5.855
C -0.534 7.285 4.577
C -0.986 6.29 5.623
N -1.745 5.164 5.084
C -2.957 5.237 4.441
N -3.489 4.073 4.204
C -2.569 3.155 4.709
C -2.607 1.731 4.767
O -3.508 0.986 4.404
N -1.468 1.18 5.325
C -0.415 1.915 5.779
N 0.611 1.21 6.261
N -0.374 3.248 5.77
C -1.477 3.809 5.226
P 2.123 9.27 4.912
O 3.164 9.839 5.789
O 1.623 10.07 3.778
O 2.651 7.873 4.341
C 3.293 6.927 5.184
C 3.492 5.597 4.494
O 2.226 4.991 4.238
C 4.201 5.709 3.141
O 5.519 5.19 3.272
C 3.305 4.872 2.224
C 2.438 4.081 3.177
N 1.14 3.643 2.607
C 0.838 2.28 2.587
O 1.607 1.417 2.958
N -0.402 1.942 2.113
C -1.353 2.812 1.657
O -2.437 2.376 1.285
C -0.973 4.238 1.664
C -1.913 5.281 1.142
C 0.242 4.575 2.143
P 6.596 5.235 2.085
O 7.936 5.268 2.705
O 6.229 6.288 1.117
O 6.388 3.809 1.385
C 6.784 2.613 2.034
C 6.555 1.376 1.175
O 5.152 1.119 1.054
C 7.129 1.506 -0.243
O 7.874 0.329 -0.536
C 5.864 1.647 -1.091
C 4.842 0.85 -0.306
N 3.454 1.253 -0.549
C 2.938 2.53 -0.589
N 1.64 2.575 -0.733
C 1.267 1.233 -0.796
C 0.016 0.59 -0.932
N -1.132 1.25 -1.004
N -0.019 -0.756 -0.985
C 1.131 -1.417 -0.9
N 2.365 -0.928 -0.751
C 2.37 0.412 -0.701
P 8.621 0.133 -1.958
O 9.715 -0.817 -1.729
O 8.921 1.446 -2.563
O 7.495 -0.574 -2.852
C 7.073 -1.895 -2.58
C 5.87 -2.294 -3.424
O 4.748 -1.456 -3.111
C 6.092 -2.17 -4.938
O 6.033 -3.459 -5.53
C 4.934 -1.278 -5.387
C 3.929 -1.43 -4.267
N 2.957 -0.309 -4.186
C 1.57 -0.575 -4.272
O 1.181 -1.735 -4.429
N 0.673 0.44 -4.195
C 1.115 1.686 -4.036
N 0.201 2.643 -3.959
C 2.522 1.996 -3.949
C 3.392 0.975 -4.027
P 6.273 -3.731 -7.09
O 6.853 -5.078 -7.24
O 6.994 -2.581 -7.676
O 4.776 -3.748 -7.66
C 3.91 -4.834 -7.392
C 2.578 -4.718 -8.124
O 1.777 -3.67 -7.564
C 2.729 -4.416 -9.623
O 1.914 -5.294 -10.387
C 2.228 -2.983 -9.724
C 1.191 -2.928 -8.621
N 0.893 -1.57 -8.156
C 1.789 -0.603 -7.756
N 1.207 0.499 -7.359
C -0.163 0.253 -7.509
C -1.3 1.068 -7.238
O -1.313 2.209 -6.781
N -2.503 0.45 -7.54
C -2.604 -0.818 -8.037
N -3.843 -1.253 -8.274
N -1.557 -1.598 -8.293
C -0.368 -1.007 -8.004
