120
./arbalign_output/seed-8_sample-0_model_chainA_pH74-aligned_to-215d_DNA_manual.xyz
O 0.511 1.578 11.163
C 1.594 2.385 11.612
C 2.718 2.46 10.573
O 3.188 1.16 10.282
C 2.257 3.078 9.253
O 2.963 4.299 9.031
C 2.568 2.036 8.212
C 3.487 1.071 8.9
N 3.256 -0.304 8.417
C 4.286 -0.974 7.724
O 5.374 -0.405 7.538
N 4.083 -2.229 7.263
C 2.901 -2.813 7.474
N 2.745 -4.046 6.996
C 1.837 -2.153 8.178
C 2.059 -0.91 8.629
P 2.685 5.325 7.822
O 3.154 6.662 8.232
O 1.291 5.159 7.369
O 3.67 4.773 6.677
C 5.081 4.859 6.822
C 5.836 4.388 5.59
O 5.648 2.986 5.392
C 5.405 5.091 4.298
O 6.575 5.442 3.57
C 4.576 4.028 3.607
C 5.241 2.735 4.051
N 4.35 1.582 4.06
C 3.124 1.504 4.676
N 2.605 0.314 4.628
C 3.547 -0.452 3.931
C 3.552 -1.827 3.588
O 2.709 -2.669 3.862
N 4.673 -2.206 2.87
C 5.678 -1.356 2.527
N 6.676 -1.886 1.816
N 5.703 -0.068 2.855
C 4.614 0.321 3.557
P 6.554 6.195 2.147
O 7.837 6.907 2.012
O 5.295 6.952 2.028
O 6.528 4.995 1.079
C 7.652 4.155 0.915
C 7.394 3.008 -0.039
O 6.379 2.159 0.48
C 6.937 3.45 -1.439
O 7.832 2.906 -2.395
C 5.541 2.849 -1.534
C 5.627 1.667 -0.607
N 4.341 1.156 -0.113
C 4.061 -0.199 -0.281
O 4.786 -0.957 -0.894
N 2.894 -0.641 0.288
C 2.002 0.11 0.989
O 1.017 -0.429 1.48
C 2.326 1.541 1.104
C 1.401 2.467 1.816
C 3.472 1.979 0.56
P 7.75 3.221 -3.986
O 9.129 3.298 -4.504
O 6.845 4.369 -4.191
O 7.055 1.908 -4.603
C 7.78 0.699 -4.745
C 7.014 -0.353 -5.535
O 5.897 -0.816 -4.765
C 6.465 0.153 -6.873
O 6.653 -0.851 -7.861
C 4.998 0.414 -6.548
C 4.693 -0.638 -5.496
N 3.656 -0.248 -4.545
C 3.458 0.981 -3.966
N 2.488 1.013 -3.093
C 2.009 -0.296 -3.097
C 0.983 -0.933 -2.378
N 0.241 -0.314 -1.469
N 0.742 -2.236 -2.62
C 1.493 -2.86 -3.527
N 2.493 -2.374 -4.259
C 2.709 -1.076 -3.993
P 6.127 -0.682 -9.389
O 7.001 -1.486 -10.248
O 5.947 0.751 -9.693
O 4.681 -1.374 -9.34
C 4.56 -2.774 -9.175
C 3.115 -3.215 -8.992
O 2.567 -2.614 -7.811
C 2.193 -2.823 -10.158
O 1.645 -4.0 -10.738
C 1.119 -1.971 -9.477
C 1.185 -2.409 -8.034
N 0.675 -1.392 -7.088
C -0.349 -1.73 -6.177
O -0.827 -2.872 -6.182
N -0.811 -0.8 -5.308
C -0.285 0.425 -5.321
N -0.765 1.301 -4.449
C 0.755 0.802 -6.24
C 1.198 -0.135 -7.091
P 0.657 -4.0 -12.016
O 0.996 -5.153 -12.856
O 0.666 -2.652 -12.626
O -0.775 -4.265 -11.342
C -1.075 -5.528 -10.764
C -2.493 -5.61 -10.232
O -2.662 -4.705 -9.131
C -3.561 -5.255 -11.273
O -4.686 -6.111 -11.133
C -3.912 -3.82 -10.894
C -3.765 -3.845 -9.387
N -3.481 -2.533 -8.813
C -2.515 -1.64 -9.195
N -2.483 -0.567 -8.453
C -3.497 -0.76 -7.519
C -3.945 0.055 -6.442
O -3.497 1.144 -6.084
N -5.01 -0.503 -5.751
C -5.573 -1.708 -6.051
N -6.605 -2.088 -5.279
N -5.165 -2.49 -7.044
C -4.126 -1.959 -7.734
