120
./arbalign_output/seed-8_sample-3_model_chainA_pH74-aligned_to-215d_DNA_manual.xyz
O -12.123 -1.641 -4.323
C -13.183 -0.671 -4.261
C -12.662 0.704 -3.842
O -12.164 0.661 -2.507
C -11.52 1.208 -4.732
O -11.818 2.529 -5.151
C -10.31 1.132 -3.825
C -10.92 1.349 -2.458
N -10.066 0.817 -1.361
C -9.495 1.721 -0.438
O -9.687 2.942 -0.568
N -8.738 1.255 0.584
C -8.542 -0.061 0.699
N -7.802 -0.472 1.731
C -9.103 -1.003 -0.237
C -9.854 -0.522 -1.239
P -11.002 3.293 -6.266
O -11.884 4.268 -6.945
O -10.287 2.292 -7.082
O -9.932 4.091 -5.381
C -10.299 5.26 -4.656
C -9.098 5.98 -4.083
O -8.547 5.246 -2.991
C -7.977 6.206 -5.105
O -7.559 7.565 -5.013
C -6.915 5.217 -4.635
C -7.134 5.179 -3.13
N -6.671 3.961 -2.485
C -7.057 2.677 -2.781
N -6.61 1.794 -1.935
C -5.862 2.532 -1.019
C -5.163 2.13 0.148
O -5.089 1.006 0.625
N -4.524 3.182 0.783
C -4.563 4.467 0.35
N -3.862 5.352 1.076
N -5.24 4.871 -0.721
C -5.871 3.861 -1.357
P -6.422 8.178 -5.959
O -6.664 9.631 -6.037
O -6.335 7.404 -7.208
O -5.088 7.925 -5.113
C -4.853 8.6 -3.885
C -3.607 8.095 -3.186
O -3.778 6.741 -2.799
C -2.341 8.153 -4.06
O -1.415 9.035 -3.456
C -1.875 6.696 -4.05
C -2.486 6.16 -2.779
N -2.594 4.685 -2.706
C -2.008 4.015 -1.632
O -1.313 4.56 -0.798
N -2.249 2.67 -1.556
C -3.0 1.939 -2.43
O -3.177 0.745 -2.222
C -3.555 2.683 -3.571
C -4.358 1.982 -4.619
C -3.332 4.009 -3.644
P -0.003 9.397 -4.138
O 0.379 10.75 -3.693
O -0.07 9.115 -5.584
O 0.982 8.326 -3.465
C 1.402 8.471 -2.122
C 2.408 7.404 -1.71
O 1.759 6.133 -1.598
C 3.571 7.242 -2.704
O 4.791 7.313 -1.973
C 3.3 5.859 -3.299
C 2.597 5.14 -2.163
N 1.76 4.015 -2.58
C 0.857 3.974 -3.615
N 0.178 2.859 -3.683
C 0.673 2.106 -2.615
C 0.358 0.821 -2.119
N -0.582 0.05 -2.648
N 1.041 0.35 -1.057
C 1.97 1.125 -0.518
N 2.345 2.355 -0.884
C 1.65 2.796 -1.941
P 6.221 7.12 -2.704
O 7.208 7.841 -1.892
O 6.114 7.429 -4.142
O 6.47 5.548 -2.543
C 6.662 4.975 -1.265
C 6.662 3.453 -1.311
O 5.395 2.966 -1.776
C 7.727 2.853 -2.24
O 8.601 2.037 -1.475
C 6.886 2.024 -3.22
C 5.649 1.719 -2.398
N 4.488 1.287 -3.216
C 3.86 0.052 -2.944
O 4.271 -0.65 -2.019
N 2.817 -0.366 -3.698
C 2.389 0.406 -4.697
N 1.369 -0.049 -5.413
C 3.0 1.679 -5.002
C 4.033 2.07 -4.239
P 9.803 1.184 -2.075
O 10.921 1.243 -1.121
O 10.036 1.596 -3.473
O 9.188 -0.292 -2.059
C 8.949 -0.951 -0.82
C 8.468 -2.382 -1.006
O 7.183 -2.402 -1.639
C 9.404 -3.225 -1.88
O 9.499 -4.549 -1.349
C 8.661 -3.224 -3.209
C 7.227 -3.308 -2.728
N 6.244 -2.906 -3.727
C 6.157 -1.705 -4.394
N 5.125 -1.632 -5.189
C 4.484 -2.87 -5.046
C 3.299 -3.39 -5.642
O 2.551 -2.825 -6.438
N 3.009 -4.682 -5.232
C 3.765 -5.392 -4.348
N 3.336 -6.636 -4.077
N 4.867 -4.925 -3.771
C 5.168 -3.66 -4.16
