120
./arbalign_output/seed-7_sample-1_model_chainA_pH74-aligned_to-215d_DNA_manual.xyz
O -2.641 -8.676 -6.843
C -3.994 -8.91 -6.529
C -4.489 -8.121 -5.309
O -3.686 -8.406 -4.165
C -4.454 -6.607 -5.522
O -5.695 -6.062 -5.099
C -3.284 -6.165 -4.668
C -3.302 -7.184 -3.545
N -1.979 -7.334 -2.898
C -1.836 -7.026 -1.53
O -2.824 -6.639 -0.881
N -0.625 -7.145 -0.941
C 0.42 -7.564 -1.662
N 1.591 -7.658 -1.039
C 0.302 -7.896 -3.056
C -0.908 -7.769 -3.626
P -6.138 -4.572 -5.148
O -7.573 -4.491 -5.51
O -5.152 -3.844 -5.972
O -5.973 -4.109 -3.617
C -6.838 -4.608 -2.606
C -6.786 -3.79 -1.329
O -5.53 -3.966 -0.669
C -6.971 -2.285 -1.562
O -7.819 -1.775 -0.532
C -5.537 -1.771 -1.473
C -4.897 -2.709 -0.467
N -3.463 -2.898 -0.651
C -2.824 -3.307 -1.797
N -1.549 -3.514 -1.637
C -1.315 -3.218 -0.294
C -0.126 -3.277 0.478
O 0.983 -3.642 0.114
N -0.313 -2.874 1.791
C -1.507 -2.471 2.303
N -1.503 -2.1 3.589
N -2.64 -2.43 1.606
C -2.479 -2.818 0.317
P -8.241 -0.261 -0.396
O -9.549 -0.207 0.293
O -8.102 0.389 -1.711
O -7.122 0.331 0.586
C -7.03 -0.109 1.928
C -5.833 0.474 2.651
O -4.634 0.036 2.034
C -5.806 2.01 2.663
O -5.747 2.438 4.014
C -4.534 2.317 1.875
C -3.692 1.086 2.111
N -2.614 0.843 1.126
C -1.306 0.671 1.571
O -0.966 0.824 2.732
N -0.388 0.311 0.619
C -0.64 0.116 -0.71
O 0.265 -0.254 -1.452
C -2.022 0.364 -1.139
C -2.399 0.242 -2.582
C -2.931 0.699 -0.204
P -5.747 3.988 4.469
O -6.504 4.097 5.732
O -6.162 4.812 3.314
O -4.197 4.27 4.773
C -3.559 3.681 5.901
C -2.122 4.155 6.07
O -1.31 3.634 5.012
C -1.962 5.68 6.055
O -1.055 6.05 7.096
C -1.42 5.933 4.651
C -0.592 4.685 4.39
N -0.427 4.347 2.978
C -1.377 4.376 1.983
N -0.955 3.92 0.831
C 0.371 3.567 1.083
C 1.382 3.006 0.275
N 1.189 2.667 -0.995
N 2.599 2.795 0.812
C 2.787 3.128 2.087
N 1.915 3.647 2.952
C 0.713 3.839 2.389
P -0.507 7.553 7.292
O -0.234 7.723 8.728
O -1.41 8.504 6.614
O 0.89 7.521 6.502
C 1.952 6.693 6.941
C 3.119 6.682 5.956
O 2.692 6.199 4.681
C 3.754 8.061 5.717
O 5.164 7.953 5.91
C 3.39 8.345 4.258
C 3.354 6.945 3.676
N 2.619 6.826 2.389
C 3.256 6.226 1.28
O 4.434 5.856 1.378
N 2.586 6.064 0.113
C 1.324 6.474 0.026
N 0.706 6.279 -1.132
C 0.64 7.103 1.134
C 1.327 7.249 2.282
P 6.198 9.15 5.706
O 7.308 8.948 6.657
O 5.464 10.428 5.728
O 6.736 8.881 4.215
C 7.597 7.786 3.937
C 8.116 7.801 2.501
O 7.062 7.512 1.573
C 8.714 9.151 2.078
O 9.946 8.945 1.384
C 7.643 9.695 1.137
C 7.147 8.42 0.49
N 5.838 8.538 -0.159
C 4.658 9.0 0.382
N 3.651 8.933 -0.447
C 4.194 8.393 -1.615
C 3.597 8.077 -2.875
O 2.417 8.204 -3.206
N 4.501 7.564 -3.791
C 5.828 7.37 -3.531
N 6.558 6.882 -4.543
N 6.404 7.653 -2.365
C 5.535 8.158 -1.453
