120
./arbalign_output/seed-3_sample-2_model_chainA_pH74-aligned_to-215d_DNA_manual.xyz
O 11.086 -4.777 0.188
C 11.906 -4.765 -0.967
C 11.15 -4.446 -2.28
O 10.059 -5.322 -2.461
C 10.518 -3.057 -2.304
O 11.521 -2.079 -2.668
C 9.476 -3.233 -3.408
C 9.157 -4.706 -3.388
N 7.74 -4.96 -3.008
C 6.781 -5.182 -4.02
O 7.125 -5.152 -5.205
N 5.487 -5.417 -3.691
C 5.137 -5.426 -2.401
N 3.856 -5.663 -2.123
C 6.095 -5.183 -1.348
C 7.375 -4.957 -1.695
P 11.38 -0.515 -2.521
O 12.677 0.109 -2.856
O 10.778 -0.242 -1.207
O 10.31 -0.118 -3.654
C 10.617 -0.166 -5.043
C 9.477 0.312 -5.925
O 8.331 -0.51 -5.765
C 9.068 1.768 -5.629
O 8.908 2.478 -6.852
C 7.75 1.559 -4.886
C 7.186 0.314 -5.552
N 6.215 -0.389 -4.716
C 6.491 -1.041 -3.536
N 5.47 -1.714 -3.064
C 4.441 -1.494 -3.982
C 3.107 -1.989 -4.027
O 2.578 -2.769 -3.251
N 2.376 -1.505 -5.1
C 2.883 -0.647 -6.031
N 2.022 -0.265 -6.984
N 4.143 -0.194 -6.032
C 4.872 -0.658 -4.985
P 8.724 4.072 -6.935
O 9.155 4.515 -8.279
O 9.369 4.674 -5.759
O 7.135 4.285 -6.81
C 6.256 3.976 -7.87
C 4.793 4.129 -7.503
O 4.43 3.149 -6.541
C 4.443 5.52 -6.921
O 3.394 6.102 -7.68
C 4.037 5.153 -5.489
C 3.5 3.742 -5.656
N 3.408 2.935 -4.413
C 2.237 2.216 -4.157
O 1.245 2.3 -4.843
N 2.254 1.39 -3.061
C 3.3 1.223 -2.201
O 3.196 0.419 -1.284
C 4.497 2.044 -2.48
C 5.681 1.998 -1.571
C 4.491 2.841 -3.569
P 2.863 7.618 -7.482
O 2.508 8.168 -8.807
O 3.839 8.358 -6.661
O 1.515 7.413 -6.626
C 0.323 6.964 -7.242
C -0.863 6.864 -6.281
O -0.648 5.809 -5.342
C -1.122 8.154 -5.475
O -2.529 8.417 -5.445
C -0.537 7.768 -4.111
C -0.888 6.293 -4.031
N -0.081 5.53 -3.075
C 1.278 5.604 -2.844
N 1.723 4.715 -1.99
C 0.576 3.999 -1.629
C 0.359 2.9 -0.767
N 1.338 2.297 -0.108
N -0.897 2.438 -0.608
C -1.872 3.031 -1.28
N -1.796 4.054 -2.136
C -0.535 4.496 -2.277
P -3.206 9.63 -4.624
O -4.444 10.003 -5.325
O -2.202 10.683 -4.369
O -3.59 8.942 -3.227
C -4.606 7.954 -3.152
C -4.71 7.3 -1.771
O -3.489 6.64 -1.435
C -5.015 8.291 -0.631
O -6.151 7.834 0.1
C -3.726 8.224 0.203
C -3.286 6.795 -0.036
N -1.869 6.522 0.333
C -1.566 5.447 1.203
O -2.481 4.76 1.669
N -0.279 5.175 1.533
C 0.696 5.928 1.027
N 1.937 5.614 1.371
C 0.43 7.045 0.145
C -0.855 7.294 -0.171
P -6.837 8.645 1.295
O -8.285 8.352 1.288
O -6.41 10.057 1.213
O -6.168 7.972 2.597
C -6.592 6.705 3.074
C -5.906 6.276 4.374
O -4.526 5.949 4.154
C -5.931 7.351 5.482
O -6.325 6.776 6.729
C -4.461 7.776 5.537
C -3.77 6.467 5.234
N -2.36 6.607 4.861
C -1.812 7.418 3.89
N -0.52 7.263 3.767
C -0.187 6.296 4.727
C 1.065 5.698 5.07
O 2.164 5.908 4.563
N 0.97 4.782 6.107
C -0.197 4.461 6.733
N -0.097 3.566 7.719
N -1.378 4.992 6.418
C -1.306 5.898 5.408
