120
./arbalign_output/seed-9_sample-3_model_chainA_pH74-aligned_to-215d_DNA_manual.xyz
O 1.29 -6.105 -7.531
C 1.901 -7.394 -7.382
C 2.653 -7.519 -6.042
O 3.601 -6.485 -5.917
C 1.722 -7.376 -4.842
O 1.391 -8.683 -4.346
C 2.528 -6.592 -3.837
C 3.823 -6.268 -4.523
N 4.223 -4.859 -4.252
C 5.194 -4.594 -3.267
O 5.687 -5.538 -2.627
N 5.589 -3.326 -3.021
C 5.037 -2.333 -3.72
N 5.467 -1.1 -3.453
C 4.026 -2.57 -4.718
C 3.655 -3.841 -4.949
P 0.24 -8.969 -3.306
O -0.015 -10.418 -3.272
O -0.869 -8.053 -3.61
O 0.892 -8.53 -1.904
C 1.861 -9.322 -1.228
C 2.216 -8.792 0.148
O 2.928 -7.565 0.055
C 0.987 -8.559 1.04
O 1.224 -9.163 2.307
C 0.927 -7.04 1.099
C 2.388 -6.633 0.992
N 2.6 -5.275 0.486
C 2.204 -4.798 -0.74
N 2.663 -3.603 -1.006
C 3.413 -3.25 0.118
C 4.182 -2.086 0.402
O 4.376 -1.125 -0.324
N 4.766 -2.105 1.656
C 4.631 -3.134 2.536
N 5.248 -2.972 3.714
N 3.945 -4.253 2.279
C 3.363 -4.252 1.054
P 0.112 -9.241 3.478
O 0.499 -10.326 4.397
O -1.231 -9.26 2.872
O 0.301 -7.844 4.238
C 1.426 -7.6 5.059
C 1.48 -6.173 5.567
O 1.718 -5.273 4.481
C 0.184 -5.713 6.259
O 0.482 -5.358 7.601
C -0.236 -4.522 5.391
C 1.088 -4.052 4.815
N 0.976 -3.173 3.62
C 1.663 -1.954 3.596
O 2.308 -1.534 4.533
N 1.575 -1.22 2.438
C 0.878 -1.57 1.321
O 0.909 -0.828 0.343
C 0.15 -2.854 1.398
C -0.677 -3.322 0.244
C 0.242 -3.586 2.532
P -0.618 -4.866 8.644
O -0.163 -5.256 9.99
O -1.953 -5.302 8.187
O -0.536 -3.27 8.5
C 0.552 -2.54 9.034
C 0.381 -1.033 8.9
O 0.564 -0.631 7.533
C -1.006 -0.529 9.336
O -0.831 0.485 10.314
C -1.593 -0.004 8.022
C -0.355 0.407 7.243
N -0.552 0.475 5.793
C -1.06 -0.502 4.971
N -1.034 -0.191 3.698
C -0.47 1.086 3.679
C -0.152 1.981 2.631
N -0.346 1.696 1.35
N 0.378 3.183 2.935
C 0.583 3.465 4.213
N 0.341 2.703 5.285
C -0.186 1.514 4.956
P -2.08 1.225 11.007
O -1.618 1.726 12.305
O -3.268 0.347 10.959
O -2.334 2.466 10.028
C -1.407 3.533 9.955
C -1.782 4.556 8.888
O -1.7 3.962 7.577
C -3.209 5.106 9.033
O -3.157 6.521 9.148
C -3.871 4.661 7.724
C -2.688 4.588 6.776
N -2.949 3.8 5.546
C -2.685 4.38 4.278
O -2.244 5.531 4.208
N -2.923 3.677 3.141
C -3.398 2.438 3.234
N -3.611 1.792 2.092
C -3.682 1.811 4.507
C -3.438 2.528 5.621
P -4.442 7.433 9.329
O -4.067 8.589 10.165
O -5.578 6.593 9.759
O -4.706 7.937 7.83
C -3.849 8.88 7.211
C -4.336 9.321 5.838
O -4.215 8.258 4.876
C -5.811 9.762 5.822
O -5.946 10.953 5.053
C -6.486 8.583 5.116
C -5.413 8.196 4.121
N -5.574 6.862 3.553
C -5.729 5.661 4.219
N -5.798 4.635 3.408
C -5.686 5.192 2.127
C -5.678 4.585 0.834
O -5.76 3.39 0.563
N -5.563 5.501 -0.204
C -5.46 6.845 -0.019
N -5.37 7.57 -1.137
N -5.444 7.433 1.176
C -5.56 6.554 2.205
