57
./ArbAlignOutput/Wat_19_cluster_637555_lowest_3-aligned_to-Wat_19_cluster_637554_lowest_2.xyz
O -7.1313881 -0.3245256 7.3426623
H -4.4958481 -2.07871246 6.628056
H -4.0503497 0.4116089 6.0715675
O -7.2146983 1.6370155 5.424179
H -5.5040702 2.8522343 3.2868757
H -7.2827386 4.4054431 3.3265645
O -5.0745711 2.063169 3.6431169
H -9.8371295 2.1735532 7.9754014
H -6.448553 1.7126773 4.8414421
O -6.4543123 1.4524402 9.3904562
H -6.6475963 0.7409304 8.763482
H -5.7405824 1.9679471 8.9944992
O -7.1525836 3.9683249 7.0169749
H -6.2490072 3.7816042 7.3050179
H -7.7298646 3.7617371 7.7632446
O -10.373278 1.8172506 7.2567653
H -10.688947 2.8011424 5.8657441
H -8.6303615 1.385547 4.3016605
O -9.2834434 -1.34751475 4.5492377
H -6.2901554 -1.11842442 3.1525335
H -5.655919 -1.0583384 6.6849269
O -6.6428213 4.178411 2.6285555
H -8.4774599 1.6064208 2.1370751
H -7.4692111 2.6911101 1.7249246
O -8.3714952 4.7745189 4.6328477
H -9.236021 4.3563561 4.7266187
H -7.9343943 4.6729807 5.489304
O -8.6669263 2.9932501 9.2014789
H -8.9199962 3.3698852 10.039839
H -7.903222 2.4125788 9.3706655
O -10.812836 3.3295135 5.055994
H -6.4163317 4.9955492 2.1925022
H -11.718181 3.627762 5.0590424
O -6.5934581 -1.65610278 3.8938131
H -5.9246425 -1.5716908 4.5819592
H -9.6775941 -1.17786074 6.200222
O -4.8546161 -1.30868506 6.1933798
H -8.0248251 -0.68228251 7.4053158
H -10.413198 -1.68582106 7.4647355
O -9.388978 1.319023 3.7005662
H -5.1811366 1.363021 2.9849875
H -10.020406 1.9773471 4.0115037
O -4.626327 3.0804789 7.9109249
H -3.864283 3.5539546 8.2335567
H -4.3007302 2.4544615 7.2393841
O -9.8302021 -1.00182235 7.1483087
H -10.22225 0.8647342 7.2394151
H -7.1636753 0.3502288 6.6447849
O -3.8050174 1.3429523 6.013617
H -4.0925507 1.6408901 5.1393547
H -7.2749853 2.4592404 5.9270448
O -7.813776 1.8273309 1.4676802
H -5.4374351 -0.23005544 0.940734
H -9.4736213 -0.49781299 4.1308012
O -5.7672414 0.0903288 1.7757717
H -6.5386934 0.6523365 1.5779283
H -8.3653955 -1.5536598 4.3200998
