84
./ArbAlignOutput/Wat_28_cluster_3649359_2nd_lowest-aligned_to-Wat_28_cluster_3649358_1st_lowest.xyz
O 2.64792066 4.2099868 -3.54586687
H 2.42636062 3.2744466 -3.45020166
H -1.2259124 2.6328683 -2.21263692
O 0.26216959 5.5183993 -2.7485467
H -0.389461 4.8117278 -2.5870127
H 1.73878094 4.4547109 -0.19155159
O 1.97976496 1.5950011 -2.76931855
H 2.57128334 0.8348183 -2.70637915
H 4.38805836 -0.93920713 -3.00035701
O 5.33897357 3.1461943 -0.37967172
H 5.44988932 5.4983619 -2.99704796
H 4.08830071 4.7998199 -2.78376286
O 3.79181922 -0.55861559 -2.36151303
H 4.34108469 -0.23855844 -1.62138266
H 2.49813707 -1.4004647 -1.34998219
O 3.9694734 6.296196 0.1322598
H 3.01921616 6.1164378 0.1097793
H 4.79105908 5.3717224 1.357306
O -0.5684039 0.8961887 -1.85717353
H 1.09494576 1.3126481 -2.49672895
H -0.703017 -0.02955084 -2.09155237
O 4.88868438 5.1162842 -2.3277415
H 4.30058996 6.0382853 -0.73678818
H 1.83604802 4.6961905 -3.35403282
O 1.76531392 -1.62575431 -0.76420597
H 1.6491154 -0.86696835 -0.16961928
H 0.23753425 -1.89364535 -1.5954458
O 2.52181602 2.8508162 -0.35936621
H 2.34004155 2.4930963 -1.24011228
H 3.48066487 2.9271298 -0.28081149
O -0.63465 -1.91829406 -2.02803124
H -0.6083182 -2.6224274 -2.66995816
H -1.6125777 -1.86688032 -0.38948532
O 5.23308187 0.3736599 -0.29932998
H 5.40537192 1.3225997 -0.37123102
H 5.29370703 3.7907423 -1.09848389
O -1.488299 3.5602139 -2.16295209
H -1.9407988 3.6665887 -1.31641425
H -0.1982671 6.2178305 -3.20402993
O 4.03071851 0.2161593 2.2463103
H 4.94759929 0.2265595 0.6114493
H 3.19356104 0.3112487 1.7659811
O 1.36039547 5.3472638 -0.15149287
H 0.97210651 5.5198542 -1.01774709
H 0.13763074 5.0254207 1.1636916
O -1.7730872 1.0811731 0.6784684
H -0.8673741 0.980978 -0.93999414
H -2.0148804 -0.75191437 0.5948778
O 1.65538097 0.5562982 0.882057
H 1.89526357 1.4104853 0.4959119
H 1.00851315 0.7166587 1.5803962
O 5.27703376 4.7424983 1.9209098
H 5.92594099 5.2476417 2.4033435
H 4.15412081 3.4781836 2.775526
O 1.96733878 -3.31869756 1.4924726
H 2.89524103 -2.62042995 2.796793
H 1.96223141 -2.83162507 0.658876
O -2.6270963 3.7401195 0.4354397
H -3.4169651 4.1845786 0.7300245
H -2.2006121 1.9425921 0.6065101
O 3.54255634 2.851736 3.1787058
H 3.82946563 1.9648339 2.9270233
H 5.46539537 3.6423712 0.4397911
O -0.5160677 4.7003619 1.798479
H -0.0174667 4.3057183 2.5224265
H -1.8874878 4.1017142 0.9583467
O -1.931009 -1.71095696 0.5071199
H 1.04662708 -3.35653136 1.7834539
H -1.1671222 -2.61869969 1.7704197
O 0.61907261 -1.23955414 4.1240997
H 1.54835397 -1.48715768 4.0561351
H 3.93061188 -0.5797711 2.7820512
O -0.6984635 -3.13345264 2.451054
H -1.3060134 -3.80512145 2.749292
H 0.07456641 0.2883495 3.4374299
O 0.99302019 3.410412 3.856732
H 1.01107585 3.7208858 4.7582795
H 1.91685954 3.2281717 3.607097
O -0.1690904 1.0570354 2.8992602
H 0.18222933 1.8520146 3.317949
H -1.2683198 1.0923331 1.5055508
O 3.30429905 -2.16237347 3.5534858
H 3.77174913 -2.82522573 4.0545868
H 0.12957125 -1.9120479 3.6318227
