90
./arbalign_output/Wat_30_cluster_4221227_2nd_lowest-aligned_to-Wat_30_cluster_4221226_1st_lowest.xyz
O 1.4265566 -3.66942457 3.8532729
H 1.7265792 -2.84058815 4.2437981
H 2.8308356 -0.82149889 5.3992015
O 2.1593283 0.8987516 -1.98065444
H 0.5330778 0.3510859 -1.42730199
H 2.2889328 1.6521365 -1.3885432
O -3.64496883 0.9068432 1.2731484
H -2.92922233 0.9540672 1.9315577
H -1.31461172 0.521021 3.767508
O 2.7865106 -0.25416366 2.183048
H 3.3479587 -0.86189521 1.6860801
H 3.236764 -1.92584704 -0.88056762
O 2.5234337 -4.11525503 1.3574371
H 2.1247048 -4.03758504 2.2372179
H 0.4714797 -3.68399842 3.9872482
O -1.40153413 -3.3493559 4.0276353
H -1.42612332 -3.27677804 3.0573156
H -2.08604536 -3.96569112 4.2744119
O -1.53508497 1.0450686 2.9825533
H -0.40105801 -0.02638254 2.052837
H -0.97056928 1.8322594 2.9475697
O -1.29492064 -2.98631176 1.3385861
H -3.49604218 -0.80703025 0.4263832
H -2.05914033 -2.58041522 0.899308
O -3.30513552 -1.67848222 0.0600816
H -1.46574104 -2.92597027 -2.84839415
H -1.45176672 -0.91961399 -1.99324572
O -0.9579144 -3.74304014 -2.99917584
H 0.0445855 -3.78377146 -1.42355077
H 1.197614 -2.88642191 -0.92404612
O -1.55213894 2.9462294 -3.35305252
H -1.87960748 2.6290668 -2.49882277
H -1.31704093 3.8711095 -3.2113779
O -0.71848229 -0.70968369 4.9047647
H -1.02494226 -1.60031669 4.6910891
H 0.2434308 -0.76848 4.948091
O 0.1606382 3.1475114 2.5697269
H 1.1077899 2.9733078 2.5365038
H -0.05414094 3.6096189 1.7488817
O 2.1446398 -1.04218385 4.7739393
H 1.8677228 -0.41445419 1.9120216
H 2.4461777 -0.73740279 3.9037571
O -0.36928593 4.0721854 -0.0660444
H 1.342085 3.4657158 -0.30317441
H -1.02236436 3.3796739 -0.24516881
O 4.2233667 -2.16281044 0.7222862
H 5.1240769 -2.47374504 0.7083442
H 3.6650781 -2.92045888 0.9842065
O 2.959047 2.4850893 2.2013166
H 2.9551254 1.5135572 2.2003833
H 3.6829426 2.7607739 2.7581101
O 2.0063619 4.4407289 -2.98958238
H 1.8174737 3.670055 -3.54221648
H 0.4482251 5.2060413 -2.74836684
O 2.2583667 3.1805412 -0.43443502
H 2.6186396 3.0117316 0.4437444
H 2.3040845 4.0913085 -2.1397758
O 2.5679916 -1.79093371 -1.5613428
H 2.5086328 -0.83420127 -1.70133281
H 1.7979929 -2.13614869 -3.27247431
O 0.1647565 -0.6340308 1.557368
H -0.12172929 -0.22116461 -0.13988984
H -0.2723468 -1.49546553 1.5629966
O -2.15381007 -1.35064619 -2.50452479
H -2.31471898 -0.77960518 -3.26859464
H -3.0880925 -1.55111667 -0.8726847
O -0.46648973 5.473221 -2.54559706
H -0.44737038 4.7013401 -0.79274184
H -0.55945703 6.3782122 -2.83018831
O -2.18174925 0.4186085 -4.61064791
H -2.77892613 1.75889 -0.13554664
H -2.10045044 1.3343778 -4.31835351
O -0.30388613 0.0608766 -1.04646844
H 1.8414508 1.2590968 -2.82033668
H 0.5125027 -2.81930508 -3.77989851
O 1.2187905 -2.21551875 -4.04009378
H 0.7324266 -0.92907045 -5.10262662
H -1.56041341 -4.37976179 -3.37365103
O -2.13090366 2.0628331 -0.78065126
H -4.44684649 1.1658565 1.7199978
H -1.48575814 1.3451394 -0.8804526
O 0.9953038 2.0794205 -4.18292186
H 0.1097197 2.3461216 -3.89678
H 0.6335376 -0.45806943 -6.57201117
O 0.4265816 -0.20425441 -5.67648957
H 0.8767481 1.3503153 -4.8046847
H -1.35360343 0.2061809 -5.05937602
O 0.5560059 -3.55224578 -0.63867698
H -0.67931715 -3.28474298 0.6558464
H 1.8043534 -4.13631729 0.7159207
