54
./arbalign_output/Wat_18_cluster_524875_2nd_lowest-aligned_to-Wat_18_cluster_524874_1st_lowest.xyz
O 2.8801689 3.38093805 9.6379804
H 1.3349616 2.65611053 10.038084
H 2.7447381 3.8264811 8.7900238
O -0.40420228 1.80403721 0.4858412
H 2.3829071 3.67235065 -0.84562951
H -0.66793007 2.13846803 1.3535243
O 0.4886496 2.17812085 10.109548
H 1.3368434 0.52806497 9.5201454
H 2.4348125 3.21874404 3.0143184
O 1.1054985 5.49688196 4.9083313
H 1.9300049 4.71942282 6.3146028
H 0.2060503 5.17084742 5.0285477
O 1.9839848 3.29956508 -0.06431512
H 0.1795105 1.05096424 3.5389583
H 0.2013635 1.74632096 7.0215067
O -1.40115654 4.06912661 5.4657297
H -2.21942186 4.45385742 5.7699585
H -1.05516648 3.53213525 6.1980042
O 3.6369888 1.88400626 6.2766509
H 3.5197928 2.67856908 9.467452
H 3.2117869 2.73032999 6.4830923
O 2.1494271 4.09623241 7.0211572
H 1.3374382 3.60049939 7.1914806
H 1.4246861 5.10115433 4.0858416
O 1.8791904 3.93901229 2.6827185
H 2.4891398 2.4958055 0.1560479
H 1.9350092 3.90841365 1.7198276
O -0.55659658 2.67542529 3.1758554
H 0.2612837 3.16596508 3.0030517
H -0.98990083 3.12198162 3.912111
O 3.192456 1.01546526 0.7918966
H 2.3769636 1.09793341 3.6104648
H 3.4083938 1.18109047 1.7198132
O 3.1870153 1.62402105 3.5475518
H 3.5361125 0.53795403 8.9932432
H 3.5328106 1.70411265 4.4456911
O 0.7165191 0.25443527 3.6673398
H 2.5014631 0.34133917 0.7987149
H 0.3075039 0.21489856 0.7305429
O 1.2379965 0.40470919 6.3797235
H 0.9841682 0.17302383 5.4771118
H 2.0907645 0.85929853 6.3186845
O 0.8055649 -0.5847283 0.9802588
H 0.4601087 -1.3016009 0.4554929
H 0.2971391 2.39256573 0.1785394
O 1.8976919 -0.1162822 9.0712223
H 1.5829643 -0.1473904 8.1573619
H 0.7304633 -0.2085773 2.8211162
O 4.3631339 1.0371505 8.86837
H 5.0582265 0.52864736 9.2769708
H 4.0595488 1.58030474 7.088931
O -0.19869888 2.53740001 7.4124307
H 0.1404042 2.36024427 10.977918
H -0.13082302 2.4396944 8.3706226
