69
./ArbAlignOutput/Wat_23_cluster_1574529_lowest_20-aligned_to-Wat_23_cluster_1574526_lowest_17.xyz
O 7.1837476 2.3327804 -1.1938758
H 7.7612621 2.6655506 -1.8751995
H 6.725831 2.2853695 2.02939732
O 4.847431 -4.76489298 0.04383723
H 3.6568588 -4.42677897 1.4052762
H 5.327206 -5.54259771 -0.2279351
O 2.5615263 1.4682472 -1.1522754
H 0.106607 0.2355309 1.90185661
H 1.7142851 1.0463836 -1.3408714
O 2.1872013 -0.95636922 5.00755445
H 1.6399357 -0.83122502 5.77848077
H 2.8968965 1.8186951 2.15373992
O 3.1157982 -3.2827844 -1.7223975
H 3.6899808 -3.86520466 -1.2133609
H -0.31634695 -4.58398233 1.50491801
O 4.6672586 3.2999182 -1.5043328
H 1.586745 -1.11791112 4.26025705
H 6.2904535 2.6667343 -1.3934722
O 6.6039301 -2.86012354 0.82481994
H 3.3104861 -2.25996681 1.59032994
H 6.7089497 -2.68086986 1.76698299
O 6.4220717 0.5392412 2.66316945
H 6.6863478 -0.31028621 3.03751693
H 3.6106967 -2.23989374 4.68776325
O 0.7704106 -1.3661051 2.67092233
H 0.4055803 -3.49097686 0.67734392
H 3.6639379 0.0393023 -1.2685896
O 4.1713878 -0.77839441 -1.1770894
H 1.5643569 -1.25022332 2.12424337
H 0.4304465 -2.23629176 2.43038625
O 4.2961947 -2.83304646 4.36204475
H 5.0542982 -0.54669858 -0.8597395
H 3.8847218 -3.36527934 3.666218
O 3.1412546 -4.0305148 2.12058881
H 5.5132903 -4.09526721 0.28540388
H 6.7093181 -2.00801281 0.38389926
O 2.4571297 2.38549 1.50465082
H 4.5114075 3.8123343 -0.7011998
H 3.9186687 2.6931993 -1.5744468
O 3.2085021 -1.32449025 1.37456718
H 3.6401158 -0.09780692 2.5302663
H 3.4879276 -1.19727317 0.46065757
O 6.7885975 -2.10377005 3.5821813
H 7.4158606 -2.47913086 4.19471577
H 5.9031152 -2.35435203 3.90094102
O 0.0762899 0.134388 -1.2383095
H -0.05227839 0.4491556 -0.325435
H -0.70834791 0.3744232 -1.7251274
O -0.02906422 1.0057402 1.33524324
H 0.7262692 1.5911092 1.47926374
H 2.5246525 1.7574507 -0.2287787
O 0.3623835 -3.9175 1.55535349
H 3.5370027 -2.41150717 -1.6896141
H 2.2025816 -4.13044988 1.91720011
O 0.5934399 -2.6812178 -0.7963432
H 0.4344852 -1.75416036 -0.999984
H 1.4431425 -2.92094547 -1.1974799
O 4.3602219 4.4194923 1.12384109
H 4.4349848 5.3254373 1.41132949
H 3.0097447 3.1721655 1.41568066
O 6.6300285 -0.16384293 -0.0537962
H 6.9280559 0.622972 -0.5268931
H 6.5356466 0.0949208 0.87383335
O 6.7084264 3.1129716 1.53155359
H 7.0248656 2.8975671 0.64535885
H 5.202384 3.983469 1.34705418
O 3.7238386 0.5958115 3.20768841
H 5.4981946 0.6635364 2.92571486
H 3.2799075 0.2497856 3.9892565
