42
./ArbAlignOutput/Wat_14_cluster_144693_lowest_19-aligned_to-Wat_14_cluster_144683_lowest_9.xyz
O -1.322162 6.2445397 -4.8613333
H -1.1060229 6.3778982 -6.5695948
H -2.0153434 5.596591 -4.6831316
O 0.86783224 1.7127661 -1.6166721
H 0.10524962 2.0252454 -2.1232373
H 0.12079162 4.1863203 -3.4454948
O 2.25395322 0.2313696 -3.4375462
H 3.42084742 1.7617783 -3.6445827
H 1.75771689 0.6708217 -2.723495
O -0.5068141 2.2858538 -7.8571906
H 0.11158929 2.9991297 -8.0537662
H -0.1489993 1.8387129 -7.078866
O 2.16917443 3.8734254 -5.6355338
H 3.40834308 3.0768001 -4.4524331
H 1.68419147 4.368957 -4.9595232
O -3.1531267 4.036653 -4.6439695
H -0.515938 2.2402789 -4.241713
H -4.0897479 4.0004196 -4.4710722
O 0.69978505 1.5023958 -5.4248738
H 2.44260883 -0.6538868 -3.1389267
H 1.20679617 0.9064969 -4.8604641
O 1.11956215 4.7005891 -8.1137266
H 1.90634191 4.2202868 -6.4962487
H 0.38717756 5.317069 -7.9519615
O -2.6484475 3.9404087 -7.2919039
H -2.0032215 3.2566199 -7.5279393
H -3.0393359 3.9420714 -5.6074295
O 3.78555107 2.6553716 -3.6679928
H 3.13136578 3.5478694 -2.2985911
H 1.407552 2.4930167 -1.4395117
O 2.61848235 4.0049543 -1.6076803
H 3.24636626 4.3428425 -0.9752246
H 1.36570406 4.8041029 -2.7668008
O -0.9495882 2.7195565 -3.5207333
H 1.24798369 2.2932007 -5.5405449
H -1.7774479 3.0791592 -3.8622906
O 0.73227668 4.9382958 -3.4818997
H -0.5618311 5.9711742 -4.3308701
H 1.53942788 4.9775424 -8.9247503
O -1.0267102 6.3559436 -7.5409765
H -1.3568793 7.1909947 -7.8612771
H -2.2334265 4.7774448 -7.5249934
