45
8w4x_sugars_model_15_chainC_pH74.pdb
O          6.57000       -3.60400        4.09600
C          6.74400       -3.34500        2.71100
C          7.63300       -2.13800        2.53400
O          8.90600       -2.43000        3.11000
C          9.82400       -1.34500        3.07300
O         11.06200       -1.73600        3.59200
C         11.11300       -1.88700        5.01300
C         11.23900       -3.37400        5.33200
O         10.02100       -4.06100        5.01700
C         11.58000       -3.58100        6.80300
O         11.84500       -4.95600        7.05300
C         12.80600       -2.76300        7.19300
O         13.09500       -2.88900        8.55800
O         12.55000       -1.36600        6.90600
C         12.31300       -1.10400        5.52300
C         12.11200        0.39500        5.32000
O         13.27500        1.10800        5.68900
C         10.06500       -0.86000        1.64900
O         10.90900        0.28900        1.65600
C          8.73700       -0.53800        0.96000
O          8.98500       -0.20800       -0.40400
C          7.80700       -1.72400        1.06300
O          6.54600       -1.42000        0.49700
H          5.99900       -4.38000        4.21100
H          7.19700       -4.19400        2.24300
H          5.79200       -3.15700        2.26000
H          7.16500       -1.31000        3.02500
H          9.39200       -0.55900        3.65600
H         10.23000       -1.51300        5.48800
H         12.03000       -3.77500        4.73300
H          9.29900       -3.70300        5.55600
H         10.74200       -3.25900        7.38600
H         12.60500       -5.24100        6.52200
H         13.64100       -3.12700        6.63200
H         12.34500       -2.56200        9.07900
H         13.16400       -1.42400        4.95900
H         11.29200        0.72400        5.92300
H         11.90900        0.57900        4.28600
H         13.46800        0.94800        6.62600
H         10.55000       -1.64100        1.10200
H         10.47800        1.00400        2.15000
H          8.27100        0.29700        1.44000
H          9.40800       -0.96000       -0.84700
H          8.24000       -2.53800        0.51900
H          6.14300       -0.68300        0.98200
