12
8w4x_sugars_model_43_chainB.pdb
O          7.52000       -5.49900        3.22800
C          7.14900       -4.58200        2.21900
C          7.44400       -3.16500        2.66500
O          6.78200       -2.93200        3.93100
C          6.95200       -1.59000        4.41800
O          6.24200       -1.47200        5.63500
C          8.42700       -1.25900        4.61300
O          8.54100        0.08600        5.04900
C          9.20200       -1.47900        3.31200
O         10.58100       -1.26600        3.54400
C          8.95800       -2.89200        2.78400
O          9.57300       -3.07800        1.53300
