24
8w4x_sugars_model_5_chainB_pH74.pdb
O         -4.32400       -0.40700        5.60600
C         -4.53600       -0.38200        4.20200
C         -5.39700       -1.55600        3.77600
O         -4.76900       -2.78400        4.22200
C         -5.48600       -3.96400        3.81600
O         -4.76700       -5.09400        4.26700
C         -6.90800       -3.96200        4.37300
O         -7.59300       -5.12800        3.92300
C         -7.65000       -2.69400        3.93900
O         -8.93400       -2.66500        4.54200
C         -6.84100       -1.45100        4.32000
O         -7.45800       -0.28100        3.82900
H         -3.77300        0.34800        5.86300
H         -5.02700        0.53000        3.93600
H         -3.59000       -0.44800        3.70700
H         -5.47300       -1.55000        2.70900
H         -5.57000       -3.98800        2.75000
H         -4.69500       -5.06600        5.23400
H         -6.87000       -3.97100        5.44200
H         -7.63100       -5.12700        2.95400
H         -7.77000       -2.69900        2.87600
H         -8.83800       -2.66000        5.50700
H         -6.80500       -1.39400        5.38800
H         -7.49800       -0.31800        2.86100
