45
8w4x_sugars_model_9_chainC_pH74.pdb
O          4.67000       -2.72500       -6.21300
C          5.41800       -3.01300       -5.03900
C          5.73600       -4.50000       -4.98900
O          6.74600       -4.81000       -5.95500
C          7.17400       -6.17300       -6.04600
O          6.17100       -6.86200       -6.76800
C          6.49400       -7.20900       -8.12600
C          5.87000       -8.54500       -8.42000
O          6.40300       -9.54000       -7.54900
C          6.10800       -8.92800       -9.87400
O          5.43000      -10.12500      -10.19100
C          5.62300       -7.83500      -10.81600
O          5.92500       -8.14700      -12.15100
O          6.26000       -6.60000      -10.48200
C          6.01100       -6.16000       -9.14300
C          6.68100       -4.81100       -8.96300
O          6.30100       -3.91900       -9.99000
C          7.41600       -6.83200       -4.68200
O          7.42700       -8.25200       -4.81900
C          6.39500       -6.42900       -3.60900
O          6.85300       -6.85800       -2.33000
C          6.17000       -4.93700       -3.59900
O          5.21700       -4.55900       -2.63000
H          4.46800       -1.77700       -6.24300
H          4.84600       -2.74200       -4.17700
H          6.33100       -2.45500       -5.05300
H          4.84300       -5.04000       -5.22500
H          8.12200       -6.21300       -6.54000
H          7.55900       -7.24700       -8.22400
H          4.81500       -8.47700       -8.25400
H          7.36000       -9.61300       -7.68900
H          7.16200       -9.06200       -9.99700
H          4.47500       -9.99600      -10.07700
H          4.56200       -7.75200      -10.70900
H          6.88600       -8.22400      -12.25600
H          4.96200       -6.04700       -8.96700
H          6.39300       -4.40000       -8.01800
H          7.74100       -4.94800       -9.00400
H          5.34000       -3.78600       -9.96400
H          8.36900       -6.47800       -4.34800
H          6.55700       -8.55400       -5.12200
H          5.46300       -6.90200       -3.83800
H          7.69800       -6.42600       -2.12800
H          7.08500       -4.44900       -3.33500
H          4.36700       -4.98100       -2.83100
