24
8w4x_sugars_model_45_chainB_pH74.pdb
O          7.66400        1.11900        4.58600
C          6.28400        1.36100        4.79200
C          5.72900        0.39700        5.81800
O          5.87000       -0.94500        5.30500
C          5.34100       -1.94400        6.18900
O          5.48200       -3.20600        5.57400
C          6.05300       -1.90600        7.53100
O          5.49300       -2.89900        8.37600
C          5.93300       -0.51900        8.15900
O          6.68200       -0.47900        9.35500
C          6.42300        0.54500        7.18400
O          6.19100        1.83900        7.69200
H          8.00700        1.74300        3.92700
H          5.76100        1.23200        3.86700
H          6.15600        2.36100        5.14900
H          4.69500        0.61900        5.98300
H          4.30500       -1.75200        6.37600
H          6.42100       -3.38000        5.40500
H          7.09500       -2.10900        7.39400
H          4.54800       -2.72000        8.50300
H          4.90600       -0.31900        8.38400
H          7.61500       -0.66000        9.15900
H          7.47600        0.40600        7.05700
H          5.23800        1.97400        7.81000
