12
8w4x_sugars_model_19_chainB.pdb
O         -5.87500        5.04700        4.99600
C         -5.71100        4.66200        3.64600
C         -6.86500        3.78100        3.19600
O         -6.89600        2.59900        4.02800
C         -7.92100        1.66500        3.63500
O         -7.83300        0.53600        4.48400
C         -9.30900        2.30900        3.71700
O        -10.29300        1.37000        3.28800
C         -9.35800        3.57800        2.86100
O        -10.61500        4.21400        3.02900
C         -8.22000        4.52300        3.24700
O         -8.18600        5.64700        2.39200
