45
8w4x_sugars_model_24_chainC_pH74.pdb
O          4.99000        3.52300        5.55400
C          5.82400        3.02200        4.51900
C          6.70000        4.14300        3.98300
O          7.61000        4.56000        5.00800
C          8.53700        5.59600        4.67400
O          7.81000        6.81400        4.58200
C          8.01900        7.75400        5.64600
C          7.99700        9.14100        5.06200
O          9.05300        9.29000        4.11200
C          8.14200       10.17400        6.17100
O          8.01200       11.48000        5.65200
C          7.07600        9.97900        7.23500
O          7.26300       10.87400        8.29900
O          7.15400        8.64500        7.74100
C          6.96100        7.63900        6.74500
C          6.99800        6.29000        7.43900
O          5.88700        6.15700        8.30100
C          9.26300        5.31700        3.36400
O          9.93400        6.50200        2.93200
C          8.32900        4.82600        2.25100
O          9.10600        4.37700        1.14600
C          7.44500        3.70600        2.72800
O          6.52900        3.32500        1.72500
H          4.43200        2.80700        5.89500
H          6.44300        2.24100        4.90700
H          5.21600        2.63700        3.72700
H          6.08100        4.97100        3.70700
H          9.28800        5.65200        5.43400
H          8.96400        7.54200        6.10200
H          7.06200        9.29400        4.56500
H          9.90600        9.15300        4.55300
H          9.11200       10.04500        6.60300
H          7.13000       11.58700        5.26300
H          6.11900       10.15900        6.79200
H          8.12900       10.71600        8.70600
H          6.01500        7.76100        6.26000
H          7.90000        6.21000        8.00900
H          6.96400        5.51600        6.70100
H          5.91300        6.85700        8.97200
H          9.96300        4.53000        3.55500
H          9.28200        7.20000        2.76500
H          7.70300        5.64200        1.95700
H          9.66800        3.63800        1.42500
H          8.05800        2.85900        2.95500
H          5.96100        4.07900        1.50200
