23
8w4x_sugars_model_39_chainC.pdb
O         -7.78800        4.68300       -1.38800
C         -8.09700        3.44600       -2.00300
C         -9.10200        2.69600       -1.16600
O        -10.28000        3.48700       -1.07200
C        -11.29300        2.93000       -0.25000
O        -12.41800        3.74400       -0.27400
C        -12.33700        4.93100        0.51300
C        -12.26600        6.13900       -0.41600
O        -11.00200        6.17400       -1.09000
C        -12.47300        7.43200        0.36600
O        -12.54700        8.53600       -0.52700
C        -13.75900        7.36300        1.18600
O        -13.94300        8.52000        1.96100
O        -13.69200        6.22100        2.07300
C        -13.57600        4.97400        1.38900
C        -13.55000        3.83600        2.40400
O        -14.77100        3.74700        3.10300
C        -11.71100        1.54600       -0.73400
O        -12.66500        0.97200        0.15700
C        -10.49000        0.63000       -0.86100
O        -10.88700       -0.61800       -1.41900
C         -9.44600        1.30200       -1.72500
O         -8.27700        0.50900       -1.80200
