12
8w4x_sugars_model_34_chainB.pdb
O          3.79900       -8.02800       -0.52400
C          3.35200       -7.13200       -1.54600
C          3.07100       -7.87400       -2.83300
O          2.08300       -8.90500       -2.57900
C          1.77300       -9.68600       -3.75100
O          0.84500      -10.69000       -3.39700
C          1.24000       -8.81000       -4.88700
O          1.01000       -9.62100       -6.03400
C          2.24300       -7.69700       -5.20600
O          1.69300       -6.82800       -6.18500
C          2.59500       -6.91700       -3.94200
O          3.60700       -5.97100       -4.21700
