23
8w4x_sugars_model_38_chainC.pdb
O         -3.43700        3.51200       -8.66800
C         -4.67300        2.96100       -8.24100
C         -5.73300        4.05100       -8.19700
O         -6.01900        4.49000       -9.53200
C         -7.02100        5.49900       -9.68500
O         -6.47100        6.73200       -9.22100
C         -6.16300        7.69600      -10.23200
C         -6.63400        9.04900       -9.75900
O         -8.05000        9.03600       -9.55300
C         -6.25500       10.12000      -10.77100
O         -6.59900       11.40300      -10.29500
C         -4.76000       10.09100      -11.05300
O         -4.41600       11.02300      -12.04500
O         -4.38600        8.78700      -11.49900
C         -4.66500        7.74500      -10.55700
C         -4.15700        6.43600      -11.13200
O         -2.84400        6.59000      -11.62200
C         -8.29400        5.18100       -8.91300
O         -9.13000        6.34000       -8.87800
C         -8.02100        4.68600       -7.48500
O         -9.23700        4.23200       -6.89700
C         -7.00300        3.56700       -7.49400
O         -6.71300        3.13100       -6.18800
