12
8w4x_sugars_model_49_chainB.pdb
O          3.98400       11.89400        6.32600
C          2.95900       12.68300        6.88200
C          3.54000       13.80800        7.73300
O          4.20400       13.24000        8.89000
C          4.70400       14.23900        9.80200
O          5.30400       13.57500       10.89900
C          5.70200       15.18300        9.11800
O          6.09800       16.19400       10.03400
C          5.07800       15.80500        7.86300
O          6.05600       16.57300        7.18100
C          4.51400       14.71200        6.95000
O          3.85600       15.27400        5.84200
