45
8w4x_sugars_model_33_chainC_pH74.pdb
O         -8.62500       -3.51100        3.34700
C         -8.56100       -2.50700        4.35200
C         -9.87600       -1.74100        4.38400
O        -10.91600       -2.60700        4.85500
C        -12.23000       -2.05200        4.94600
O        -12.73100       -1.94400        3.62200
C        -13.76100       -2.87800        3.26500
C        -14.74800       -2.16700        2.37800
O        -15.33900       -1.07500        3.08200
C        -15.82800       -3.13800        1.91500
O        -16.69800       -2.50700        0.99400
C        -15.21200       -4.35000        1.23300
O        -16.19900       -5.28600        0.89000
O        -14.28500       -4.97600        2.12300
C        -13.21600       -4.11900        2.54600
C        -12.28600       -4.93200        3.43000
O        -11.86400       -6.10300        2.76000
C        -12.25700       -0.68900        5.63400
O        -13.51000       -0.05700        5.38500
C        -11.10900        0.22800        5.18800
O        -11.07000        1.38400        6.02500
C         -9.78700       -0.49200        5.24900
O         -8.72900        0.33600        4.83500
H         -7.78800       -4.00000        3.32500
H         -7.76000       -1.83200        4.13300
H         -8.39000       -2.96400        5.30400
H        -10.09900       -1.41500        3.39000
H        -12.83700       -2.69400        5.55000
H        -14.22400       -3.22700        4.16400
H        -14.23300       -1.78800        1.52000
H        -15.80800       -1.40900        3.86200
H        -16.37200       -3.45000        2.78200
H        -16.19500       -2.22900        0.21300
H        -14.71700       -4.01800        0.34400
H        -16.65000       -5.58900        1.69300
H        -12.66900       -3.75600        1.70100
H        -12.80200       -5.20600        4.32600
H        -11.42700       -4.33900        3.66600
H        -12.63700       -6.64700        2.54200
H        -12.12700       -0.85900        6.68200
H        -13.61400        0.09000        4.43200
H        -11.28300        0.52200        4.17400
H        -10.91200        1.11300        6.94300
H         -9.58100       -0.76800        6.26200
H         -8.87500        0.61200        3.91700
