45
8w4x_sugars_model_4_chainC_pH74.pdb
O         -9.13500       -0.36000       -3.57300
C         -8.93600       -1.74200       -3.34900
C         -9.92700       -2.23600       -2.32500
O        -11.24400       -2.03800       -2.84200
C        -12.28700       -2.40200       -1.94200
O        -13.53200       -2.23900       -2.55700
C        -13.98500       -0.88800       -2.68600
C        -13.97800       -0.50400       -4.16600
O        -12.63000       -0.40200       -4.64600
C        -14.70500        0.82100       -4.38100
O        -14.82700        1.08600       -5.77400
C        -16.10200        0.78100       -3.76100
O        -16.74500        2.02500       -3.87400
O        -15.99300        0.45700       -2.35300
C        -15.39200       -0.81500       -2.10300
C        -15.36900       -1.08100       -0.59700
O        -16.68200       -1.21400       -0.09000
C        -12.17200       -3.86100       -1.51300
O        -13.17000       -4.16800       -0.53900
C        -10.77600       -4.14900       -0.95000
O        -10.66100       -5.54000       -0.66500
C         -9.72600       -3.71500       -1.94600
O         -8.42300       -3.90400       -1.41600
H         -8.49700       -0.04400       -4.23200
H         -7.94100       -1.90500       -2.99000
H         -9.07700       -2.27500       -4.26600
H         -9.77500       -1.67700       -1.42600
H        -12.19700       -1.76800       -1.08500
H        -13.34900       -0.20600       -2.16200
H        -14.48800       -1.26900       -4.71400
H        -12.16300        0.29000       -4.15300
H        -14.13400        1.59300       -3.90900
H        -15.34500        0.38100       -6.19300
H        -16.67300        0.04200       -4.28300
H        -16.23100        2.69900       -3.40200
H        -15.97600       -1.57000       -2.58600
H        -14.88400       -0.26500       -0.10400
H        -14.83900       -1.99300       -0.41800
H        -17.17400       -0.39300       -0.24600
H        -12.32500       -4.48000       -2.37200
H        -13.04000       -3.61100        0.24400
H        -10.62800       -3.59900       -0.04400
H        -10.79400       -6.04900       -1.48000
H         -9.82900       -4.31800       -2.82400
H         -8.31700       -3.36200       -0.61900
