23
8w4x_sugars_model_5_chainC.pdb
O          3.58700       -9.24300        1.11300
C          2.45500       -9.16700        1.95400
C          1.46400      -10.24400        1.57900
O          2.08700      -11.52000        1.76400
C          1.28500      -12.63600        1.38700
O          1.93200      -13.84100        1.69400
C          3.03600      -14.20300        0.85600
C          4.32400      -14.04500        1.66300
O          4.59600      -12.65800        1.90200
C          5.50200      -14.68600        0.93500
O          6.65800      -14.66900        1.76600
C          5.18800      -16.13000        0.55300
O          6.23700      -16.71300       -0.17600
O          3.99000      -16.15500       -0.26400
C          2.83500      -15.64900        0.40900
C          1.62400      -15.77300       -0.51200
O          1.40600      -17.12400       -0.88400
C         -0.04600      -12.64800        2.13500
O         -0.87600      -13.71000        1.65900
C         -0.77400      -11.30300        1.98600
O         -1.94800      -11.30400        2.79800
C          0.15200      -10.17400        2.38300
O         -0.47300       -8.91400        2.17900
