45
8w4x_sugars_model_29_chainC_pH74.pdb
O          9.17000        3.33900       -0.08500
C          8.26600        3.70000       -1.09800
C          8.83800        3.34000       -2.47100
O         10.00100        4.13500       -2.73200
C         10.64200        3.95000       -3.99800
O          9.80800        4.54500       -4.99100
C         10.24400        5.83200       -5.48400
C         10.05800        5.86300       -6.98000
O         10.85600        4.84800       -7.59300
C         10.43500        7.23600       -7.53000
O         10.15900        7.30700       -8.91600
C          9.66500        8.34500       -6.82600
O         10.09900        9.61100       -7.26200
O          9.87700        8.25100       -5.41000
C          9.47500        6.99400       -4.84000
C          9.69300        7.06600       -3.33700
O          8.86800        8.06300       -2.77600
C         10.87900        2.47800       -4.32900
O         11.21300        2.34700       -5.71200
C          9.66900        1.58500       -4.00300
O         10.03100        0.21400       -4.14000
C          9.16400        1.84700       -2.60400
O          8.04600        1.05800       -2.30100
H          8.79700        3.57200        0.77900
H          7.34400        3.17700       -0.95100
H          8.09900        4.75600       -1.05600
H          8.08400        3.55200       -3.20000
H         11.60800        4.41000       -3.96700
H         11.27500        5.95800       -5.22600
H          9.02900        5.67600       -7.20500
H         11.79200        5.00900       -7.39500
H         11.48200        7.37000       -7.35700
H          9.20800        7.18500       -9.06300
H          8.62700        8.23100       -7.05800
H         11.04000        9.71900       -7.05400
H          8.43900        6.80900       -5.03300
H         10.71800        7.30100       -3.13900
H          9.44600        6.12000       -2.90100
H          9.08800        8.92300       -3.16800
H         11.68800        2.14500       -3.71300
H         10.47000        2.65300       -6.25500
H          8.88300        1.81700       -4.69100
H         10.74300        0.00400       -3.51600
H          9.92600        1.58000       -1.90100
H          7.32600        1.26700       -2.91700
