24
8w4x_sugars_model_1_chainB_pH74.pdb
O         -6.72900       -4.49700       -7.87800
C         -6.50600       -3.54800       -6.85700
C         -6.22600       -2.18100       -7.44700
O         -4.96900       -2.23300       -8.15700
C         -4.58500       -0.95800       -8.69100
O         -3.33500       -1.10300       -9.32400
C         -5.62900       -0.43200       -9.66400
O         -5.22400        0.85100      -10.11800
C         -7.00400       -0.36100       -8.99600
O         -7.97400        0.02000       -9.95600
C         -7.35800       -1.70800       -8.37600
O         -8.56600       -1.63400       -7.66100
H         -6.90600       -5.36400       -7.48100
H         -5.66600       -3.85500       -6.26900
H         -7.38300       -3.48600       -6.24800
H         -6.16900       -1.46900       -6.65000
H         -4.51100       -0.24400       -7.89800
H         -3.40900       -1.75200      -10.04100
H         -5.71000       -1.09800      -10.49800
H         -5.15100        1.45400       -9.36100
H         -6.98400        0.36900       -8.21400
H         -7.99900       -0.63700      -10.66900
H         -7.48000       -2.41500       -9.17000
H         -8.47400       -0.99600       -6.93600
