12
8w4x_sugars_model_28_chainB.pdb
O         -3.02300        6.48000       -3.44300
C         -1.99700        5.56200       -3.78000
C         -2.58700        4.33700       -4.44800
O         -3.52700        3.72600       -3.53700
C         -4.10300        2.51800       -4.05600
O         -4.96600        1.98500       -3.07600
C         -4.85100        2.78300       -5.35900
O         -5.36700        1.55500       -5.84700
C         -3.92200        3.43400       -6.38700
O         -4.66300        3.76600       -7.54500
C         -3.26600        4.67500       -5.79100
O         -2.31800        5.22300       -6.67900
