23
8w4x_sugars_model_46_chainC.pdb
O         -4.70500        9.49100       -3.36300
C         -4.82000        9.24900       -1.96600
C         -4.44600       10.51000       -1.19600
O         -5.47000       11.50300       -1.38400
C         -5.27900       12.76200       -0.71700
O         -4.22900       13.44500       -1.40700
C         -4.61000       14.56600       -2.23200
C         -3.44800       15.52600       -2.25600
O         -3.17400       15.99000       -0.92800
C         -3.75600       16.70700       -3.17700
O         -2.62900       17.56000       -3.29000
C         -4.13400       16.22500       -4.57200
O         -4.49800       17.30400       -5.39900
O         -5.24400       15.32600       -4.48000
C         -4.99100       14.16300       -3.67200
C         -6.23700       13.28900       -3.72500
O         -6.52300       12.92000       -5.06300
C         -4.93500       12.58500        0.76300
O         -4.46800       13.82800        1.29700
C         -3.88200       11.49000        1.01200
O         -3.78400       11.23600        2.41300
C         -4.23800       10.20800        0.29000
O         -3.23100        9.23600        0.46100
