24
8w4x_sugars_model_6_chainB_pH74.pdb
O         -0.37400       -9.57000       -2.15000
C         -0.95200       -8.37800       -2.65100
C         -0.15300       -7.86900       -3.83200
O          1.21900       -7.67900       -3.41500
C          2.04700       -7.13800       -4.45500
O          3.34200       -6.93900       -3.92400
C          2.07900       -8.07000       -5.66100
O          2.88400       -7.48900       -6.67700
C          0.66100       -8.32400       -6.17400
O          0.70500       -9.26400       -7.23100
C         -0.22700       -8.82600       -5.03800
O         -1.56300       -8.95600       -5.46400
H         -0.89200       -9.88800       -1.39400
H         -1.95700       -8.57500       -2.96200
H         -0.94900       -7.63600       -1.88000
H         -0.57300       -6.93900       -4.15400
H          1.65000       -6.20400       -4.79600
H          3.69900       -7.78700       -3.61600
H          2.50000       -9.01100       -5.37500
H          2.50700       -6.63500       -6.94000
H          0.24400       -7.41000       -6.54200
H          1.08200      -10.09700       -6.90700
H          0.13200       -9.78900       -4.74100
H         -1.90100       -8.08900       -5.73600
