23
8w4x_sugars_model_18_chainC.pdb
O         -1.85900        6.43300       -3.99100
C         -2.77300        5.37200       -3.87000
C         -3.37200        5.03900       -5.23100
O         -3.96500        6.21700       -5.78700
C         -4.61300        6.07700       -7.05000
O         -5.80400        5.31500       -6.84200
C         -7.03800        6.05800       -6.80400
C         -8.11000        5.23600       -7.46600
O         -7.76300        4.98000       -8.82500
C         -9.44800        5.96200       -7.38500
O        -10.48000        5.16200       -7.91400
C         -9.79400        6.30700       -5.94800
O        -10.97700        7.05800       -5.88100
O         -8.73800        7.07800       -5.38000
C         -7.46800        6.41700       -5.37700
C         -6.47200        7.32800       -4.68700
O         -6.96300        7.71900       -3.42600
C         -3.71600        5.39200       -8.07600
O         -4.48900        5.02600       -9.22000
C         -3.00700        4.15000       -7.51900
O         -2.04000        3.69000       -8.45100
C         -2.34000        4.44500       -6.19700
O         -1.76700        3.28500       -5.65200
