12
8w4x_sugars_model_36_chainB.pdb
O          0.94000        7.21500       -6.56000
C          0.33800        7.22300       -5.28500
C          1.15700        8.04600       -4.31300
O          2.51600        7.54900       -4.31100
C          3.36500        8.23200       -3.37300
O          4.64400        7.64400       -3.43700
C          3.43400        9.72400       -3.67800
O          4.24500       10.36700       -2.69900
C          2.03000       10.33600       -3.70100
O          2.11300       11.69000       -4.09900
C          1.12700        9.55000       -4.65200
O         -0.19500       10.03000       -4.59500
