23
8w4x_sugars_model_15_chainC.pdb
O          6.57000       -3.60400        4.09600
C          6.74400       -3.34500        2.71100
C          7.63300       -2.13800        2.53400
O          8.90600       -2.43000        3.11000
C          9.82400       -1.34500        3.07300
O         11.06200       -1.73600        3.59200
C         11.11300       -1.88700        5.01300
C         11.23900       -3.37400        5.33200
O         10.02100       -4.06100        5.01700
C         11.58000       -3.58100        6.80300
O         11.84500       -4.95600        7.05300
C         12.80600       -2.76300        7.19300
O         13.09500       -2.88900        8.55800
O         12.55000       -1.36600        6.90600
C         12.31300       -1.10400        5.52300
C         12.11200        0.39500        5.32000
O         13.27500        1.10800        5.68900
C         10.06500       -0.86000        1.64900
O         10.90900        0.28900        1.65600
C          8.73700       -0.53800        0.96000
O          8.98500       -0.20800       -0.40400
C          7.80700       -1.72400        1.06300
O          6.54600       -1.42000        0.49700
