12
8w4x_sugars_model_44_chainB.pdb
O         -9.01600       -2.81000       -4.35200
C         -8.29500       -2.70400       -3.14000
C         -8.85100       -1.57400       -2.30100
O         -8.76100       -0.35400       -3.06600
C         -9.21100        0.79500       -2.33300
O         -9.05400        1.92800       -3.16200
C        -10.66100        0.63400       -1.89600
O        -11.04500        1.76800       -1.13800
C        -10.84000       -0.64400       -1.08200
O        -12.20800       -0.82300       -0.77900
C        -10.30200       -1.83900       -1.85900
O        -10.36400       -3.01400       -1.08700
