24
8w4x_sugars_model_40_chainB_pH74.pdb
O         -0.84700        2.59400        9.54500
C          0.24900        2.63700        8.65100
C          0.12800        3.84500        7.74200
O         -1.19800        3.86600        7.17300
C         -1.38900        4.93900        6.24100
O         -2.70000        4.83900        5.73200
C         -1.16200        6.29300        6.90300
O         -1.31400        7.31500        5.93400
C          0.22600        6.35100        7.53800
O          0.37200        7.57400        8.22900
C          0.41800        5.16700        8.47900
O          1.72600        5.14600        9.00200
H         -0.76300        1.81900       10.12300
H          1.15900        2.70300        9.20900
H          0.25300        1.74800        8.05600
H          0.86400        3.75900        6.97000
H         -0.67700        4.86300        5.44600
H         -3.33600        4.90900        6.46100
H         -1.88400        6.43600        7.68000
H         -0.66200        7.19000        5.22700
H          0.97500        6.29400        6.77600
H         -0.30300        7.63600        8.92300
H         -0.27100        5.27500        9.29100
H          2.36300        5.04900        8.27700
