24
8w4x_sugars_model_32_chainB_pH74.pdb
O         -8.99100       -2.91900       -1.26200
C         -7.77600       -3.57900       -1.55600
C         -7.47200       -4.61400       -0.48800
O         -7.50900       -3.96800        0.80500
C         -7.16700       -4.85800        1.88100
O         -7.18800       -4.11600        3.07900
C         -8.12600       -6.04100        1.94300
O         -7.72100       -6.90700        2.99000
C         -8.15100       -6.78100        0.60300
O         -9.12000       -7.80500        0.65100
C         -8.45000       -5.80600       -0.53300
O         -8.36300       -6.44700       -1.78200
H         -9.17600       -2.26000       -1.95000
H         -6.98300       -2.86200       -1.58900
H         -7.86400       -4.06900       -2.50300
H         -6.49800       -5.01700       -0.67100
H         -6.19100       -5.26700        1.72400
H         -8.07500       -3.74800        3.21600
H         -9.11800       -5.69000        2.13900
H         -6.82200       -7.22700        2.81500
H         -7.19200       -7.21900        0.42000
H         -9.99300       -7.41600        0.81600
H         -9.44900       -5.44600       -0.40500
H         -7.46100       -6.78000       -1.91300
