12
8w4x_sugars_model_4_chainB.pdb
O         -0.43900       -9.50000       -0.64700
C         -0.70300       -8.48800        0.31300
C         -2.12400       -8.61500        0.83300
O         -3.03900       -8.46800       -0.28000
C         -4.42100       -8.53000        0.11500
O         -5.21800       -8.33800       -1.03500
C         -4.73500       -9.86600        0.78500
O         -6.09800       -9.88300        1.18300
C         -3.81600      -10.08700        1.98800
O         -4.06000      -11.37000        2.53900
C         -2.35500       -9.95300        1.56400
O         -1.49700      -10.04400        2.67700
