23
8w4x_sugars_model_20_chainC.pdb
O          7.60200        1.71000       -3.71100
C          6.78800        2.76000       -4.21200
C          7.32600        4.10400       -3.73200
O          8.62200        4.33800       -4.31000
C          9.27500        5.57800       -4.00500
O          9.82000        5.46600       -2.69600
C         11.25400        5.35500       -2.62100
C         11.71000        6.03700       -1.35500
O         11.35100        7.42300       -1.38400
C         13.22200        5.88500       -1.19300
O         13.64500        6.42400        0.04600
C         13.63100        4.41800       -1.24600
O         15.02900        4.27900       -1.18700
O         13.16700        3.83400       -2.47100
C         11.74200        3.89800       -2.64600
C         11.40100        3.19100       -3.95200
O         11.90300        1.87200       -3.95800
C          8.35300        6.79600       -4.09900
O          8.95300        7.91300       -3.43500
C          6.94600        6.53900       -3.52900
O          6.08900        7.63000       -3.86700
C          6.37000        5.24700       -4.06500
O          5.08400        4.99700       -3.54600
