24
8w4x_sugars_model_3_chainB_pH74.pdb
O         -7.30000        3.63000        6.90700
C         -6.90700        3.36700        5.57200
C         -7.61700        2.13200        5.05600
O         -7.33500        1.02600        5.94500
C         -7.92100       -0.20600        5.50300
O         -7.54800       -1.21600        6.42300
C         -9.43500       -0.08700        5.40100
O         -9.96600       -1.31100        4.92600
C         -9.82000        1.06700        4.47200
O        -11.22300        1.21800        4.47000
C         -9.13600        2.35100        4.92500
O         -9.39100        3.39800        4.02000
H         -6.84100        4.42200        7.22900
H         -7.16100        4.20500        4.95600
H         -5.85000        3.20200        5.54300
H         -7.25300        1.91400        4.07400
H         -7.56600       -0.45200        4.52400
H         -7.87300       -0.98400        7.30700
H         -9.84200        0.12100        6.36800
H         -9.59900       -1.50400        4.04900
H         -9.49600        0.85100        3.47500
H        -11.52800        1.41400        5.36900
H         -9.53400        2.62000        5.88100
H         -9.03500        3.16600        3.14800
