12
8w4x_sugars_model_7_chainB.pdb
O          0.68900        9.46200       -3.40500
C          0.93500        8.24600       -4.09400
C         -0.30500        7.80800       -4.84800
O         -1.40800        7.75000       -3.91600
C         -2.63700        7.30800       -4.52000
O         -3.63000        7.23800       -3.51600
C         -3.05600        8.24900       -5.64300
O         -4.27000        7.77700       -6.21000
C         -1.94800        8.33900       -6.69400
O         -2.31700        9.27000       -7.69400
C         -0.63200        8.74800       -6.03000
O          0.42900        8.72600       -6.96100
