23
8w4x_sugars_model_43_chainC.pdb
O          0.47000        3.99900        8.69800
C          1.82400        3.63400        8.47200
C          2.70500        4.86900        8.54500
O          2.71700        5.36400        9.89400
C          3.51900        6.52400       10.15700
O          2.85600        7.65100        9.58300
C          2.24300        8.57300       10.50500
C          2.37800        9.96700        9.94600
O          3.75900       10.31100        9.80600
C          1.67000       10.96900       10.85500
O          1.69100       12.26500       10.28500
C          0.21900       10.56600       11.08300
O         -0.40600       11.43400       11.99600
O          0.16900        9.23700       11.61200
C          0.76600        8.24800       10.76200
C          0.58500        6.89200       11.41500
O         -0.78000        6.61500       11.63600
C          4.93300        6.39300        9.59000
O          5.57200        7.67300        9.59600
C          4.97100        5.80900        8.16900
O          6.31700        5.49600        7.81900
C          4.12100        4.56500        8.05500
O          4.09100        4.09400        6.72600
