23
8w4x_sugars_model_0_chainC.pdb
O         -8.57200       -0.38400        1.74800
C         -8.53500        0.41900        0.58100
C         -9.11800       -0.34600       -0.58200
O        -10.49000       -0.62800       -0.29200
C        -11.14200       -1.41200       -1.28500
O        -12.48000       -1.62300       -0.93200
C        -12.68700       -2.57700        0.11800
C        -13.16300       -1.83600        1.36400
O        -12.09700       -1.03600        1.90300
C        -13.65300       -2.82100        2.42400
O        -14.22600       -2.11600        3.52300
C        -14.70900       -3.75800        1.83600
O        -15.13000       -4.71500        2.78000
O        -14.14000       -4.45500        0.69900
C        -13.73200       -3.58000       -0.36000
C        -13.18700       -4.41300       -1.51900
O        -14.20000       -5.22800       -2.07600
C        -11.11200       -0.71500       -2.64200
O        -11.71100       -1.54400       -3.63900
C         -9.66600       -0.37800       -3.03400
O         -9.66800        0.36400       -4.25000
C         -9.00900        0.41000       -1.92300
O         -7.64100        0.65200       -2.22100
