12
8w4x_sugars_model_14_chainB.pdb
O         -0.91800      -10.90700       -3.53200
C         -0.84100       -9.58900       -4.05000
C          0.60500       -9.13900       -4.15900
O          1.24300       -9.31800       -2.87100
C          2.61200       -8.87300       -2.85300
O          3.11800       -9.06000       -1.54800
C          3.45000       -9.63600       -3.88000
O          4.78100       -9.14100       -3.84800
C          2.84700       -9.48800       -5.27900
O          3.58000      -10.28400       -6.19500
C          1.37400       -9.90700       -5.26200
O          0.77100       -9.66800       -6.51300
