45
8w4x_sugars_model_13_chainC_pH74.pdb
O          4.13900        4.58100        2.82100
C          4.83700        3.36400        2.60400
C          5.83200        3.54100        1.48200
O          6.73300        4.58900        1.84600
C          7.68300        4.91900        0.83600
O          8.55000        5.92300        1.28700
C          7.98500        7.23800        1.35100
C          7.85700        7.64400        2.81900
O          6.85300        6.84800        3.47000
C          7.50800        9.12600        2.94500
O          7.53200        9.52200        4.31300
C          8.50800        9.98300        2.16200
O          8.15500       11.34700        2.20400
O          8.51700        9.55600        0.77400
C          8.91000        8.19000        0.59500
C          8.92900        7.85400       -0.89300
O          9.87600        8.64300       -1.58500
C          8.53100        3.70700        0.45200
O          9.41800        4.03800       -0.61400
C          7.63100        2.53200        0.04800
O          8.43600        1.38200       -0.19700
C          6.62200        2.26100        1.14500
O          5.72700        1.22900        0.75800
H          3.50100        4.46400        3.54200
H          5.35500        3.08700        3.49800
H          4.13900        2.59700        2.34100
H          5.28200        3.78400        0.59700
H          7.12900        5.25600       -0.01500
H          7.01300        7.26900        0.90500
H          8.80100        7.47600        3.29500
H          5.99500        6.99700        3.04300
H          6.52700        9.27100        2.54400
H          8.42300        9.38900        4.67300
H          9.47300        9.86000        2.60800
H          7.28100       11.46700        1.80100
H          9.89300        8.06500        0.99800
H          9.18100        6.82100       -1.01400
H          7.96000        8.05700       -1.29800
H         10.76200        8.47100       -1.23000
H          9.11200        3.41700        1.30200
H          8.90300        4.30300       -1.39200
H          7.09800        2.77400       -0.84800
H          8.92500        1.15200        0.60800
H          7.15600        1.94500        2.01700
H          5.23700        1.50500       -0.03200
