45
8w4x_sugars_model_44_chainC_pH74.pdb
O         -2.50500        8.45700       -2.51200
C         -3.84100        7.96700       -2.55600
C         -4.71000        8.79400       -1.62200
O         -4.86200       10.11000       -2.16100
C         -5.67400       11.03700       -1.43300
O         -4.88600       11.52200       -0.35400
C         -4.43800       12.88100       -0.47600
C         -4.34300       13.46900        0.90800
O         -5.62400       13.45400        1.53800
C         -3.79900       14.89100        0.84300
O         -3.59600       15.40900        2.14100
C         -2.47100       14.93500        0.09900
O         -2.01200       16.25800       -0.04300
O         -2.64000       14.36900       -1.20500
C         -3.08400       13.00800       -1.19300
C         -3.13200       12.53200       -2.63400
O         -1.86400       12.67700       -3.24700
C         -6.98400       10.43900       -0.92100
O         -7.53400       11.26600        0.10500
C         -6.84500        9.00100       -0.40900
O         -8.13900        8.44400       -0.20100
C         -6.06900        8.14900       -1.38300
O         -5.92800        6.82500       -0.92000
H         -1.94800        7.93100       -3.10700
H         -3.85700        6.94300       -2.24600
H         -4.21700        8.04100       -3.55500
H         -4.22300        8.84800       -0.67100
H         -5.97200       11.82400       -2.09400
H         -5.14600       13.41200       -1.07800
H         -3.66900       12.87400        1.48900
H         -6.24500       13.99000        1.02100
H         -4.52300       15.48200        0.32300
H         -2.93800       14.86800        2.60600
H         -1.75400       14.37800        0.66400
H         -2.65700       16.77100       -0.55500
H         -2.40900       12.38600       -0.64300
H         -3.41700       11.50100       -2.65500
H         -3.84500       13.12300       -3.17000
H         -1.21000       12.14400       -2.76800
H         -7.64400       10.40100       -1.76200
H         -6.92600       11.29100        0.86100
H         -6.30700        9.02100        0.51600
H         -8.62300        8.42800       -1.04100
H         -6.60900        8.09400       -2.30500
H         -5.44200        6.82600       -0.08100
