23
8w4x_sugars_model_1_chainC.pdb
O          4.37600        3.46200       -8.48500
C          3.25900        2.98900       -9.21000
C          2.44600        4.15600       -9.70900
O          3.27200        4.93500      -10.57500
C          2.64500        6.10300      -11.08900
O          3.50200        6.74600      -11.98400
C          4.59200        7.45400      -11.39400
C          5.88100        6.70100      -11.71100
O          5.93200        5.46800      -10.98400
C          7.09900        7.55200      -11.36100
O          8.28300        6.90600      -11.81100
C          7.01000        8.91900      -12.01900
O          8.08900        9.73900      -11.64800
O          5.78700        9.56700      -11.60000
C          4.60900        8.85400      -11.98500
C          3.38100        9.64200      -11.54200
O          3.33900       10.90400      -12.18200
C          1.36300        5.77600      -11.84200
O          0.71300        6.97800      -12.24600
C          0.42500        4.93500      -10.96700
O         -0.70700        4.54100      -11.73800
C          1.16400        3.72500      -10.44300
O          0.33900        2.98000       -9.56700
