24
8w4x_sugars_model_49_chainB_pH74.pdb
O          3.98400       11.89400        6.32600
C          2.95900       12.68300        6.88200
C          3.54000       13.80800        7.73300
O          4.20400       13.24000        8.89000
C          4.70400       14.23900        9.80200
O          5.30400       13.57500       10.89900
C          5.70200       15.18300        9.11800
O          6.09800       16.19400       10.03400
C          5.07800       15.80500        7.86300
O          6.05600       16.57300        7.18100
C          4.51400       14.71200        6.95000
O          3.85600       15.27400        5.84200
H          3.59300       11.18600        5.79000
H          2.33500       12.06600        7.49500
H          2.39000       13.11500        6.08600
H          2.72600       14.43100        8.04000
H          3.89200       14.84900       10.14000
H          6.03800       13.02500       10.58200
H          6.56500       14.62600        8.81600
H          5.32000       16.70200       10.31100
H          4.27000       16.44600        8.15000
H          6.79200       15.99900        6.91800
H          5.33300       14.12100        6.59600
H          3.11000       15.81300        6.14800
