12
8w4x_sugars_model_41_chainB.pdb
O         -1.27400        6.67900       -5.54300
C         -0.25500        5.94100       -4.87100
C          0.93300        6.82300       -4.56500
O          0.49300        7.94100       -3.76700
C          1.54900        8.86300       -3.46800
O          1.02100        9.92900       -2.70700
C          2.70000        8.19100       -2.73500
O          3.74000        9.13200       -2.54500
C          3.20000        6.98500       -3.52400
O          4.18800        6.30600       -2.76900
C          2.04600        6.05100       -3.85500
O          2.48500        4.99000       -4.66400
