24
8w4x_sugars_model_19_chainB_pH74.pdb
O         -5.87500        5.04700        4.99600
C         -5.71100        4.66200        3.64600
C         -6.86500        3.78100        3.19600
O         -6.89600        2.59900        4.02800
C         -7.92100        1.66500        3.63500
O         -7.83300        0.53600        4.48400
C         -9.30900        2.30900        3.71700
O        -10.29300        1.37000        3.28800
C         -9.35800        3.57800        2.86100
O        -10.61500        4.21400        3.02900
C         -8.22000        4.52300        3.24700
O         -8.18600        5.64700        2.39200
H         -5.13100        5.60800        5.26500
H         -5.67700        5.53800        3.03200
H         -4.79900        4.11000        3.55400
H         -6.70800        3.50700        2.17400
H         -7.77500        1.36800        2.61800
H         -7.96600        0.81200        5.40400
H         -9.51300        2.58600        4.73000
H        -10.11600        1.11300        2.37000
H         -9.23700        3.31500        1.83100
H        -10.73300        4.45600        3.96100
H         -8.39500        4.86200        4.24600
H         -8.02800        5.35500        1.48100
