45
8w4x_sugars_model_30_chainC_pH74.pdb
O          1.88900       -0.03400      -10.08800
C          2.85800        0.95100       -9.73300
C          4.20500        0.59700      -10.35100
O          4.12200        0.72600      -11.78000
C          5.30600        0.43300      -12.53800
O          5.45800       -0.98500      -12.56200
C          5.14300       -1.62900      -13.81100
C          6.11400       -2.77400      -14.01000
O          7.45800       -2.27800      -14.06000
C          5.77700       -3.53500      -15.29500
O          6.60900       -4.67300      -15.43500
C          4.31900       -3.99900      -15.29400
O          3.98400       -4.61500      -16.51500
O          3.45500       -2.86800      -15.09500
C          3.69400       -2.15300      -13.86800
C          2.66600       -1.03300      -13.77700
O          1.35200       -1.56100      -13.83100
C          6.56200        1.10100      -11.96400
O          7.73200        0.50700      -12.53400
C          6.64300        1.04300      -10.42500
O          7.70300        1.89000       -9.97000
C          5.33300        1.47000       -9.79300
O          5.38700        1.38900       -8.38400
H          1.03400        0.19600       -9.69200
H          2.54200        1.90700      -10.09500
H          2.95600        0.98200       -8.66800
H          4.43800       -0.41600      -10.09600
H          5.19300        0.82900      -13.52600
H          5.23200       -0.90400      -14.59300
H          6.02900       -3.44800      -13.18300
H          7.54900       -1.66500      -14.80600
H          5.93700       -2.86300      -16.11200
H          6.45800       -5.27700      -14.69100
H          4.19500       -4.70800      -14.50200
H          4.09300       -3.97900      -17.23900
H          3.58300       -2.80000      -13.02300
H          2.80800       -0.35700      -14.59400
H          2.79500       -0.51900      -12.84700
H          1.22600       -2.02900      -14.67100
H          6.50200        2.13700      -12.22700
H          7.77200       -0.43000      -12.28700
H          6.83800        0.03200      -10.13300
H          7.52300        2.80500      -10.23600
H          5.14600        2.49500      -10.03700
H          5.55600        0.47100       -8.11900
