23
8w4x_sugars_model_40_chainC.pdb
O         -6.90000        3.52200       -0.76300
C         -6.41200        4.42600        0.21000
C         -6.31100        5.82300       -0.38100
O         -7.62100        6.28100       -0.74500
C         -7.73100        7.60900       -1.26900
O         -7.18700        7.63500       -2.58800
C         -8.14400        7.78600       -3.64000
C         -7.64100        8.82100       -4.61400
O         -7.48600       10.08600       -3.96400
C         -8.60600        8.95400       -5.78100
O         -8.08600        9.83300       -6.75400
C         -8.85400        7.60300       -6.43100
O         -9.82000        7.70700       -7.44000
O         -9.32200        6.67600       -5.44800
C         -8.40700        6.47000       -4.36400
C         -8.97000        5.41600       -3.43000
O         -9.56600        4.37600       -4.15900
C         -7.00300        8.62900       -0.41100
O         -6.92400        9.86900       -1.11400
C         -5.59800        8.17000        0.00300
O         -5.06100        9.08300        0.95700
C         -5.63300        6.78200        0.59600
O         -4.33100        6.33600        0.90000
