23
8w4x_sugars_model_6_chainC.pdb
O          8.65200       -0.33300        0.21400
C          8.44700       -1.55100       -0.47900
C          8.89800       -1.39700       -1.91100
O         10.28900       -1.08400       -1.90700
C         10.83600       -0.83600       -3.19200
O         12.21500       -0.63400       -3.07800
C         12.61200        0.64600       -2.59000
C         13.20700        0.47900       -1.19500
O         12.18100        0.12900       -0.25400
C         13.89900        1.76000       -0.74700
O         14.58000        1.54000        0.48200
C         14.90900        2.21800       -1.79600
O         15.50300        3.43600       -1.43700
O         14.23000        2.40000       -3.06200
C         13.63800        1.20300       -3.56300
C         12.99900        1.47800       -4.92100
O         13.98300        1.78200       -5.88900
C         10.62500       -2.01400       -4.13500
O         11.08100       -1.68300       -5.44500
C          9.15000       -2.41700       -4.17900
O          9.00800       -3.59600       -4.96400
C          8.64400       -2.64400       -2.77500
O          7.26300       -2.95300       -2.78300
