12
8w4x_sugars_model_13_chainB.pdb
O          3.17100       -8.13000        0.80000
C          2.64300       -7.20600       -0.14500
C          3.67700       -6.14900       -0.49600
O          4.00700       -5.40500        0.70400
C          4.95200       -4.34000        0.47000
O          5.16700       -3.65900        1.69200
C          6.26300       -4.88900       -0.09100
O          7.15600       -3.80500       -0.32900
C          6.00200       -5.68300       -1.37900
O          7.21400       -6.26600       -1.82900
C          4.94700       -6.76400       -1.13000
O          4.60800       -7.42200       -2.33300
