45
8w4x_sugars_model_37_chainC_pH74.pdb
O         -1.71700        7.06100       -1.52000
C         -2.74400        6.18700       -1.96400
C         -4.03500        6.47000       -1.21000
O         -4.53200        7.76300       -1.58500
C         -5.74400        8.18900       -0.95500
O         -5.45200        8.46500        0.40800
C         -5.39700        9.84700        0.76700
C         -6.21500       10.05400        2.01900
O         -7.57100        9.65200        1.81600
C         -6.15000       11.51500        2.44300
O         -6.81300       11.70400        3.67400
C         -4.70300       11.97500        2.58900
O         -4.63300       13.34700        2.87200
O         -3.98800       11.72300        1.37300
C         -3.96400       10.33700        1.01600
C         -3.04200       10.12800       -0.16800
O         -2.77200       11.31800       -0.86000
C         -6.84200        7.12700       -1.03800
O         -7.93100        7.49100       -0.18900
C         -6.34200        5.71700       -0.68100
O         -7.35900        4.75800       -0.96200
C         -5.08400        5.38400       -1.45200
O         -4.58600        4.11800       -1.08700
H         -0.89900        6.87200       -2.00600
H         -2.44700        5.17400       -1.78900
H         -2.90800        6.34300       -3.01000
H         -3.82400        6.46400       -0.16100
H         -6.10900        9.05800       -1.46100
H         -5.78800       10.41300       -0.05300
H         -5.80500        9.44600        2.79800
H         -7.96600       10.19000        1.11200
H         -6.63100       12.09300        1.68200
H         -6.37400       11.17900        4.36100
H         -4.26700       11.42900        3.39900
H         -5.02700       13.84800        2.14100
H         -3.57000        9.74700        1.81700
H         -2.11800        9.72000        0.18500
H         -3.53400        9.46300       -0.84700
H         -2.32500       11.94200       -0.26700
H         -7.16600        7.09000       -2.05700
H         -7.62700        7.52200        0.73200
H         -6.11200        5.69000        0.36400
H         -7.57100        4.77900       -1.90800
H         -5.31800        5.34900       -2.49600
H         -4.36400        4.11800       -0.14300
