23
8w4x_sugars_model_7_chainC.pdb
O         -8.42500        1.47200       -1.41800
C         -8.22700        2.60500       -2.25800
C         -8.98800        2.41800       -3.56400
O        -10.39800        2.52900       -3.32200
C        -11.28200        2.43300       -4.44500
O        -11.41400        1.05200       -4.78400
C        -12.68800        0.46600       -4.44500
C        -13.14500       -0.42500       -5.57800
O        -13.28400        0.33900       -6.78300
C        -14.47600       -1.08900       -5.22000
O        -14.85800       -2.01400       -6.22200
C        -14.37400       -1.83300       -3.89200
O        -15.62400       -2.35200       -3.50700
O        -13.91700       -0.93700       -2.86900
C        -12.63800       -0.34100       -3.14000
C        -12.25000        0.51400       -1.94500
O        -12.40200       -0.21400       -0.74200
C        -10.81500        3.24100       -5.65800
O        -11.52400        2.82200       -6.82600
C         -9.29800        3.15400       -5.90000
O         -8.91800        4.09900       -6.90200
C         -8.53600        3.41900       -4.62500
O         -7.13800        3.34900       -4.82800
