45
8w4x_sugars_model_8_chainC_pH74.pdb
O         -7.23400        2.94300       -0.29400
C         -7.68900        1.67200        0.13700
C         -8.61400        1.83700        1.32500
O         -9.76200        2.57600        0.90000
C        -10.69400        2.86200        1.94300
O        -11.80800        3.52900        1.42000
C        -11.60600        4.90200        1.07100
C        -11.65700        5.03100       -0.45400
O        -10.50200        4.41600       -1.04800
C        -11.72300        6.50100       -0.87100
O        -11.91900        6.60100       -2.27900
C        -12.87400        7.21100       -0.15600
O        -12.90500        8.58200       -0.47600
O        -12.69700        7.07700        1.28000
C        -12.71300        5.71900        1.73200
C        -12.57400        5.68600        3.25200
O        -13.65600        6.34700        3.87600
C        -11.19700        1.58500        2.61500
O        -12.05900        1.90500        3.70900
C        -10.01300        0.73400        3.10200
O        -10.50100       -0.50100        3.61600
C         -9.05300        0.49800        1.95000
O         -7.91000       -0.22300        2.38900
H         -6.64200        2.83400       -1.05500
H         -6.85000        1.07100        0.42000
H         -8.21900        1.19600       -0.66100
H         -8.07500        2.35800        2.08900
H        -10.18300        3.46700        2.66200
H        -10.65600        5.26100        1.40800
H        -12.53900        4.53200       -0.79800
H         -9.70100        4.86600       -0.73800
H        -10.79900        6.96700       -0.60000
H        -12.75800        6.17700       -2.52000
H        -13.79200        6.76200       -0.47200
H        -12.07600        8.99900       -0.19300
H        -13.64700        5.27700        1.45400
H        -11.66100        6.17000        3.53000
H        -12.57000        4.66500        3.57100
H        -13.67300        7.27600        3.59600
H        -11.75200        1.01900        1.89600
H        -11.56700        2.41900        4.36900
H         -9.48900        1.24600        3.88200
H        -10.97900       -0.97500        2.91800
H         -9.56400       -0.08000        1.20900
H         -7.44000        0.29400        3.06200
