23
8w4x_sugars_model_10_chainC.pdb
O         -2.54700        8.74000        0.90400
C         -3.91000        8.59300        0.54800
C         -4.76500        8.74800        1.77800
O         -4.60300       10.07400        2.27700
C         -5.30100       10.33000        3.48400
O         -5.16600       11.66900        3.83400
C         -3.92800       12.03300        4.43100
C         -3.17500       12.93100        3.46200
O         -2.71800       12.17500        2.33400
C         -1.99100       13.59500        4.15100
O         -1.39400       14.54700        3.28100
C         -2.43800       14.30100        5.42300
O         -1.35200       14.86500        6.10900
O         -3.07200       13.34200        6.29200
C         -4.24400       12.76000        5.72500
C         -4.87800       11.81700        6.74100
O         -5.27800       12.52500        7.89800
C         -6.79300       10.06600        3.34400
O         -7.44200       10.22400        4.60400
C         -7.04700        8.66700        2.79100
O         -8.44200        8.50600        2.54600
C         -6.25700        8.46800        1.52500
O         -6.42300        7.14800        1.03600
