12
8w4x_sugars_model_18_chainB.pdb
O          8.34600        2.19600       -4.91900
C          7.36900        1.19100       -4.71600
C          6.21900        1.37600       -5.68400
O          5.70100        2.71300       -5.53100
C          4.57500        2.98600       -6.37100
O          4.14100        4.30100       -6.11000
C          4.93600        2.81300       -7.84000
O          3.79100        3.06600       -8.63000
C          5.47600        1.40900       -8.08900
O          5.88700        1.29500       -9.43700
C          6.63800        1.12100       -7.14600
O          7.08200       -0.20600       -7.28800
