45
8w4x_sugars_model_10_chainC_pH74.pdb
O         -2.54700        8.74000        0.90400
C         -3.91000        8.59300        0.54800
C         -4.76500        8.74800        1.77800
O         -4.60300       10.07400        2.27700
C         -5.30100       10.33000        3.48400
O         -5.16600       11.66900        3.83400
C         -3.92800       12.03300        4.43100
C         -3.17500       12.93100        3.46200
O         -2.71800       12.17500        2.33400
C         -1.99100       13.59500        4.15100
O         -1.39400       14.54700        3.28100
C         -2.43800       14.30100        5.42300
O         -1.35200       14.86500        6.10900
O         -3.07200       13.34200        6.29200
C         -4.24400       12.76000        5.72500
C         -4.87800       11.81700        6.74100
O         -5.27800       12.52500        7.89800
C         -6.79300       10.06600        3.34400
O         -7.44200       10.22400        4.60400
C         -7.04700        8.66700        2.79100
O         -8.44200        8.50600        2.54600
C         -6.25700        8.46800        1.52500
O         -6.42300        7.14800        1.03600
H         -1.99400        8.64100        0.11300
H         -4.06600        7.62300        0.12400
H         -4.17600        9.34100       -0.17000
H         -4.44000        8.01900        2.49100
H         -4.88300        9.67900        4.22300
H         -3.31700       11.18100        4.64500
H         -3.84700       13.69200        3.12400
H         -2.10800       11.48300        2.63400
H         -1.28100       12.83500        4.40100
H         -2.04300       15.23300        3.05900
H         -3.11400       15.08400        5.14700
H         -0.73200       14.16400        6.36400
H         -4.93800       13.53900        5.48600
H         -4.16600       11.06700        7.01700
H         -5.74100       11.36500        6.29900
H         -4.50300       12.94000        8.30700
H         -7.19700       10.77800        2.65400
H         -7.08200        9.58200        5.23600
H         -6.73300        7.93200        3.50200
H         -8.73600        9.16900        1.90200
H         -6.62200        9.15500        0.79000
H         -6.09600        6.51600        1.69500
