24
8w4x_sugars_model_47_chainB_pH74.pdb
O          5.77200        8.28900        2.34700
C          6.00100        7.11500        1.58900
C          6.02000        7.44800        0.10800
O          4.78200        8.11600       -0.22900
C          4.68300        8.42600       -1.62600
O          3.42800        9.03200       -1.84500
C          5.82000        9.33800       -2.07200
O          5.70100        9.59100       -3.46300
C          7.17200        8.70100       -1.75400
O          8.20900        9.60400       -2.08300
C          7.23300        8.31600       -0.27800
O          8.42600        7.62500        0.01100
H          5.76100        8.06700        3.29100
H          6.94300        6.69100        1.86900
H          5.21500        6.41400        1.78100
H          6.11200        6.53800       -0.44800
H          4.76500        7.53100       -2.20600
H          3.36300        9.84200       -1.31500
H          5.75900       10.26500       -1.54100
H          5.75600        8.75400       -3.95000
H          7.29500        7.81200       -2.33600
H          8.10900       10.41600       -1.56100
H          7.21100        9.21800        0.29700
H          8.45700        6.80400       -0.50500
