45
8w4x_sugars_model_5_chainC_pH74.pdb
O          3.58700       -9.24300        1.11300
C          2.45500       -9.16700        1.95400
C          1.46400      -10.24400        1.57900
O          2.08700      -11.52000        1.76400
C          1.28500      -12.63600        1.38700
O          1.93200      -13.84100        1.69400
C          3.03600      -14.20300        0.85600
C          4.32400      -14.04500        1.66300
O          4.59600      -12.65800        1.90200
C          5.50200      -14.68600        0.93500
O          6.65800      -14.66900        1.76600
C          5.18800      -16.13000        0.55300
O          6.23700      -16.71300       -0.17600
O          3.99000      -16.15500       -0.26400
C          2.83500      -15.64900        0.40900
C          1.62400      -15.77300       -0.51200
O          1.40600      -17.12400       -0.88400
C         -0.04600      -12.64800        2.13500
O         -0.87600      -13.71000        1.65900
C         -0.77400      -11.30300        1.98600
O         -1.94800      -11.30400        2.79800
C          0.15200      -10.17400        2.38300
O         -0.47300       -8.91400        2.17900
H          4.21900       -8.55000        1.35800
H          1.99500       -8.20700        1.84400
H          2.76000       -9.30700        2.97000
H          1.19200      -10.09300        0.55500
H          1.12000      -12.54500        0.33400
H          3.09900      -13.57900       -0.01100
H          4.19100      -14.54200        2.60100
H          4.71800      -12.20200        1.05500
H          5.68400      -14.12100        0.04500
H          6.48500      -15.18300        2.57100
H          5.05000      -16.68700        1.45600
H          6.37300      -16.21800       -0.99900
H          2.66900      -16.22800        1.29300
H          0.75800      -15.40600       -0.00300
H          1.80800      -15.20100       -1.39700
H          1.23700      -17.65500       -0.09000
H          0.16000      -12.80600        3.17300
H         -1.06800      -13.57400        0.71800
H         -1.06300      -11.16000        0.96600
H         -1.69900      -11.43300        3.72700
H          0.37600      -10.28100        3.42400
H         -0.68200       -8.80500        1.23800
