12
8w4x_sugars_model_23_chainB.pdb
O          1.22300       -4.75500       -8.48000
C          0.55100       -4.03800       -7.47000
C          0.28700       -2.61600       -7.91100
O          1.55300       -1.98000       -8.19400
C          1.41200       -0.59700       -8.56000
O          2.70000       -0.06700       -8.77700
C          0.53600       -0.44100       -9.79800
O          0.38500        0.93600      -10.08400
C         -0.82600       -1.10100       -9.58200
O         -1.58000       -1.03500      -10.77600
C         -0.64600       -2.54800       -9.13500
O         -1.88200       -3.14700       -8.83300
