45
8w4x_sugars_model_49_chainC_pH74.pdb
O          0.55100        5.61300       -0.63400
C         -0.67100        5.60800       -1.35700
C         -1.70100        6.46300       -0.62500
O         -1.31200        7.85200       -0.71200
C         -2.19000        8.80600       -0.08600
O         -2.04100        8.64800        1.32900
C         -1.40300        9.72000        2.05000
C         -1.98900        9.73900        3.43900
O         -3.39200       10.00400        3.37100
C         -1.28900       10.79500        4.29100
O         -1.74900       10.73900        5.62700
C          0.22000       10.58700        4.30300
O          0.86300       11.62100        5.00900
O          0.70700       10.59600        2.95600
C          0.13200        9.56900        2.12500
C          0.79800        9.66000        0.75900
O          2.19900        9.45800        0.88400
C         -3.64900        8.60500       -0.50300
O         -4.49600        9.38500        0.34500
C         -4.09200        7.12800       -0.45900
O         -5.38000        7.00000       -1.05600
C         -3.10400        6.23900       -1.19000
O         -3.47100        4.87700       -1.07700
H          1.20500        5.06900       -1.10000
H         -1.03300        4.60400       -1.43700
H         -0.50700        6.00800       -2.33600
H         -1.73100        6.17500        0.40500
H         -1.92800        9.79700       -0.39400
H         -1.58300       10.63800        1.53000
H         -1.84000        8.78200        3.89400
H         -3.53800       10.87000        2.96000
H         -1.51600       11.74700        3.85800
H         -1.53700        9.87200        6.00600
H          0.42700        9.65100        4.77900
H          0.67700       12.47000        4.57900
H          0.30800        8.59700        2.53700
H          0.38800        8.91000        0.11500
H          0.62000       10.63100        0.34700
H          2.36700        8.57900        1.25800
H         -3.73300        8.92500       -1.52100
H         -4.40500        9.08000        1.26100
H         -4.13000        6.81800        0.56400
H         -5.33600        7.28300       -1.98300
H         -3.11200        6.49500       -2.22900
H         -3.47200        4.61900       -0.14200
