12
8w4x_sugars_model_47_chainB.pdb
O          5.77200        8.28900        2.34700
C          6.00100        7.11500        1.58900
C          6.02000        7.44800        0.10800
O          4.78200        8.11600       -0.22900
C          4.68300        8.42600       -1.62600
O          3.42800        9.03200       -1.84500
C          5.82000        9.33800       -2.07200
O          5.70100        9.59100       -3.46300
C          7.17200        8.70100       -1.75400
O          8.20900        9.60400       -2.08300
C          7.23300        8.31600       -0.27800
O          8.42600        7.62500        0.01100
