12
8w4x_sugars_model_3_chainB.pdb
O         -7.30000        3.63000        6.90700
C         -6.90700        3.36700        5.57200
C         -7.61700        2.13200        5.05600
O         -7.33500        1.02600        5.94500
C         -7.92100       -0.20600        5.50300
O         -7.54800       -1.21600        6.42300
C         -9.43500       -0.08700        5.40100
O         -9.96600       -1.31100        4.92600
C         -9.82000        1.06700        4.47200
O        -11.22300        1.21800        4.47000
C         -9.13600        2.35100        4.92500
O         -9.39100        3.39800        4.02000
