12
8w4x_sugars_model_40_chainB.pdb
O         -0.84700        2.59400        9.54500
C          0.24900        2.63700        8.65100
C          0.12800        3.84500        7.74200
O         -1.19800        3.86600        7.17300
C         -1.38900        4.93900        6.24100
O         -2.70000        4.83900        5.73200
C         -1.16200        6.29300        6.90300
O         -1.31400        7.31500        5.93400
C          0.22600        6.35100        7.53800
O          0.37200        7.57400        8.22900
C          0.41800        5.16700        8.47900
O          1.72600        5.14600        9.00200
