12
8w4x_sugars_model_21_chainB.pdb
O          4.80100       -7.06700        1.50300
C          4.67700       -5.74500        1.99200
C          4.20100       -5.76700        3.43100
O          3.01200       -6.58400        3.51700
C          2.44400       -6.61400        4.83500
O          1.27400       -7.40800        4.78800
C          3.44200       -7.17100        5.84600
O          2.86100       -7.14000        7.14000
C          4.73900       -6.36200        5.81900
O          5.68200       -6.96200        6.68600
C          5.28400       -6.28900        4.39500
O          6.42100       -5.45700        4.33600
