45
8w4x_sugars_model_43_chainC_pH74.pdb
O          0.47000        3.99900        8.69800
C          1.82400        3.63400        8.47200
C          2.70500        4.86900        8.54500
O          2.71700        5.36400        9.89400
C          3.51900        6.52400       10.15700
O          2.85600        7.65100        9.58300
C          2.24300        8.57300       10.50500
C          2.37800        9.96700        9.94600
O          3.75900       10.31100        9.80600
C          1.67000       10.96900       10.85500
O          1.69100       12.26500       10.28500
C          0.21900       10.56600       11.08300
O         -0.40600       11.43400       11.99600
O          0.16900        9.23700       11.61200
C          0.76600        8.24800       10.76200
C          0.58500        6.89200       11.41500
O         -0.78000        6.61500       11.63600
C          4.93300        6.39300        9.59000
O          5.57200        7.67300        9.59600
C          4.97100        5.80900        8.16900
O          6.31700        5.49600        7.81900
C          4.12100        4.56500        8.05500
O          4.09100        4.09400        6.72600
H         -0.09000        3.20900        8.65100
H          2.13300        2.93200        9.21800
H          1.91500        3.19000        7.50300
H          2.30400        5.62300        7.90100
H          3.62800        6.64000       11.21500
H          2.74400        8.49200       11.44700
H          1.91900        9.99800        8.98000
H          4.18800       10.28700       10.67600
H          2.19200       10.97500       11.78900
H          1.21700       12.25400        9.43900
H         -0.29200       10.61600       10.14400
H          0.05400       11.39200       12.84900
H          0.28800        8.24000        9.80500
H          1.10000        6.88400       12.35300
H          0.98300        6.14400       10.76200
H         -1.15500        7.28700       12.22700
H          5.45400        5.70400       10.22100
H          5.08400        8.28100        9.01800
H          4.57500        6.54400        7.50000
H          6.66400        4.82900        8.43200
H          4.55000        3.79700        8.66400
H          3.70500        4.77300        6.15100
