23
8w4x_sugars_model_37_chainC.pdb
O         -1.71700        7.06100       -1.52000
C         -2.74400        6.18700       -1.96400
C         -4.03500        6.47000       -1.21000
O         -4.53200        7.76300       -1.58500
C         -5.74400        8.18900       -0.95500
O         -5.45200        8.46500        0.40800
C         -5.39700        9.84700        0.76700
C         -6.21500       10.05400        2.01900
O         -7.57100        9.65200        1.81600
C         -6.15000       11.51500        2.44300
O         -6.81300       11.70400        3.67400
C         -4.70300       11.97500        2.58900
O         -4.63300       13.34700        2.87200
O         -3.98800       11.72300        1.37300
C         -3.96400       10.33700        1.01600
C         -3.04200       10.12800       -0.16800
O         -2.77200       11.31800       -0.86000
C         -6.84200        7.12700       -1.03800
O         -7.93100        7.49100       -0.18900
C         -6.34200        5.71700       -0.68100
O         -7.35900        4.75800       -0.96200
C         -5.08400        5.38400       -1.45200
O         -4.58600        4.11800       -1.08700
