23
8w4x_sugars_model_23_chainC.pdb
O          7.52500        5.90400       -4.45400
C          6.91900        5.36900       -5.61700
C          6.22000        6.47300       -6.39300
O          7.19900        7.33800       -6.98500
C          6.71100        8.43700       -7.76500
O          6.18300        9.42000       -6.87800
C          7.03000       10.56000       -6.68500
C          6.23300       11.82300       -6.91300
O          5.68200       11.83900       -8.22900
C          7.12200       13.04100       -6.69000
O          6.36400       14.22900       -6.78700
C          7.78600       12.99600       -5.31700
O          8.71000       14.04100       -5.16600
O          8.48600       11.75300       -5.14800
C          7.63800       10.60600       -5.27600
C          8.43200        9.35500       -4.93000
O          9.60100        9.25900       -5.71400
C          5.63600        8.01700       -8.76500
O          4.98100        9.17100       -9.27900
C          4.59900        7.05000       -8.17400
O          3.76500        6.54200       -9.21200
C          5.27300        5.91000       -7.45300
O          4.32700        5.04300       -6.86900
