12
8w4x_sugars_model_38_chainB.pdb
O         -8.53900       -5.87600       -1.37100
C         -7.90700       -4.75500       -0.78700
C         -8.66000       -3.48800       -1.14000
O         -8.62500       -3.30800       -2.57100
C         -9.25800       -2.09700       -3.00100
O         -9.13400       -2.01400       -4.40300
C        -10.72200       -2.06100       -2.57700
O        -11.29000       -0.83000       -2.98300
C        -10.84600       -2.24300       -1.06300
O        -12.21300       -2.31100       -0.71100
C        -10.11300       -3.50900       -0.62800
O        -10.12400       -3.64600        0.77400
