45
8w4x_sugars_model_26_chainC_pH74.pdb
O          1.27200       -8.79600        3.79400
C          0.08600       -8.06700        4.06600
C         -1.11100       -9.00400        4.01200
O         -1.04300       -9.91700        5.11800
C         -2.10700      -10.86900        5.22800
O         -1.95500      -11.80600        4.16100
C         -1.46500      -13.11000        4.52300
C         -2.21300      -14.13600        3.70900
O         -3.61000      -14.07200        4.00400
C         -1.67600      -15.53200        4.00200
O         -2.29400      -16.48500        3.16700
C         -0.17300      -15.59700        3.77400
O          0.33600      -16.85300        4.14000
O          0.47300      -14.59900        4.57000
C          0.04300      -13.26200        4.28500
C          0.85900      -12.32000        5.15200
O          2.23200      -12.48300        4.88600
C         -3.47800      -10.20000        5.15300
O         -4.48700      -11.20000        4.99800
C         -3.58700       -9.17700        4.01200
O         -4.80500       -8.44900        4.14000
C         -2.42200       -8.21600        4.02200
O         -2.48000       -7.34600        2.91800
H          2.03500       -8.19700        3.82900
H         -0.03300       -7.29400        3.33500
H          0.15200       -7.63000        5.04100
H         -1.08500       -9.56100        3.09900
H         -2.05500      -11.35600        6.17900
H         -1.62700      -13.25000        5.57100
H         -2.07000      -13.92500        2.67000
H         -3.75100      -14.26200        4.94500
H         -1.89200      -15.74800        5.02700
H         -2.09300      -16.28200        2.24000
H          0.01400      -15.43100        2.73400
H          0.16900      -17.00700        5.08300
H          0.20500      -13.02400        3.25400
H          0.67000      -12.53600        6.18300
H          0.57800      -11.31100        4.93300
H          2.49300      -13.39600        5.08300
H         -3.61600       -9.66200        6.06800
H         -4.34500      -11.67600        4.16500
H         -3.57300       -9.70900        3.08400
H         -4.80800       -7.97000        4.98400
H         -2.47200       -7.62200        4.91100
H         -2.43700       -7.86200        2.09700
