24
8w4x_sugars_model_16_chainB_pH74.pdb
O          9.21300       -0.75400       -2.77400
C          8.39600        0.40100       -2.73700
C          9.01900        1.46800       -1.85900
O          9.16000        0.94000       -0.51600
C          9.68600        1.90700        0.41200
O          9.73800        1.30600        1.68900
C         11.07000        2.39100       -0.02800
O         11.53400        3.37000        0.89900
C         11.01100        2.96300       -1.44700
O         12.32100        3.30900       -1.87200
C         10.38400        1.94700       -2.40500
O         10.22100        2.49900       -3.68600
H          8.79900       -1.42500       -3.33900
H          7.43500        0.14000       -2.34500
H          8.29800        0.78600       -3.73100
H          8.37700        2.32400       -1.85200
H          9.05100        2.76800        0.44300
H         10.31400        0.52600        1.65600
H         11.75300        1.56800       -0.04000
H         10.91800        4.11900        0.91400
H         10.40000        3.84200       -1.44900
H         12.88100        2.51700       -1.87300
H         11.04500        1.10900       -2.48000
H          9.62300        3.26100       -3.63600
