12
8w4x_sugars_model_0_chainB.pdb
O         -0.83600        7.20800       -6.10600
C         -0.47100        5.86700       -5.80500
C         -1.63000        4.92100       -6.08800
O         -2.73900        5.28200       -5.22800
C         -3.86400        4.39600       -5.37300
O         -4.86600        4.78800       -4.45100
C         -4.39400        4.43000       -6.80400
O         -5.49400        3.53400       -6.90800
C         -3.28200        4.05500       -7.79100
O         -3.77000        4.19600       -9.11600
C         -2.05800        4.94500       -7.57300
O         -0.98400        4.52800       -8.38400
