12
8w4x_sugars_model_9_chainB.pdb
O          5.78600        0.49600        6.55300
C          4.64500       -0.28500        6.28400
C          5.04600       -1.61500        5.68300
O          5.86400       -1.37100        4.51600
C          6.24600       -2.57500        3.83600
O          7.00900       -2.21500        2.70700
C          7.03100       -3.50200        4.75300
O          7.33700       -4.69300        4.05100
C          6.23200       -3.80900        6.02100
O          7.02000       -4.58400        6.90200
C          5.79300       -2.50800        6.68900
O          4.97600       -2.76600        7.80600
