45
8w4x_sugars_model_41_chainC_pH74.pdb
O          8.58900       -1.33500       -1.15300
C          8.28200        0.01200       -1.46000
C          9.08000        0.95000       -0.57200
O         10.47800        0.76100       -0.82000
C         11.37900        1.57200       -0.06700
O         11.39200        1.08300        1.26100
C         12.54400        0.32500        1.60300
C         13.08000        0.83600        2.91200
O         13.39300        2.22300        2.83200
C         14.30600        0.03400        3.31100
O         14.75900        0.42800        4.58800
C         13.99100       -1.45500        3.34000
O         15.14300       -2.20800        3.59900
O         13.45700       -1.86500        2.07800
C         12.25700       -1.17500        1.72800
C         11.65600       -1.78400        0.47400
O         12.61000       -2.47300       -0.29800
C         10.99300        3.04700       -0.07800
O         11.74700        3.74800        0.90200
C          9.49400        3.28000        0.14100
O          9.18000        4.65100       -0.08200
C          8.67500        2.40800       -0.77600
O          7.29600        2.58500       -0.56300
H          8.07300       -1.92300       -1.72700
H          7.23700        0.18100       -1.30300
H          8.53400        0.20200       -2.48200
H          8.86800        0.71500        0.45000
H         12.34900        1.51300       -0.51400
H         13.25600        0.44200        0.81300
H         12.32400        0.71700        3.66000
H         14.07800        2.36200        2.15900
H         15.06800        0.22200        2.58400
H         14.06600        0.25600        5.24400
H         13.27700       -1.62200        4.11900
H         15.79200       -2.05800        2.89400
H         11.52200       -1.28500        2.49800
H         10.88600       -2.46900        0.76000
H         11.26800       -0.98500       -0.12300
H         12.97900       -3.20500        0.22100
H         11.21900        3.42200       -1.05400
H         11.53500        3.40100        1.78300
H          9.25600        3.02200        1.15200
H          9.39500        4.88700       -0.99800
H          8.87000        2.69200       -1.78900
H          7.07500        2.33700        0.34900
