45
8w4x_sugars_model_36_chainC_pH74.pdb
O          9.16800        2.43500        1.65400
C          8.78400        3.65300        1.04200
C          9.21900        4.82900        1.91000
O         10.65300        4.92100        1.89700
C         11.25300        5.99500        2.64200
O         11.16800        5.66000        4.02900
C         12.40200        5.29200        4.67800
C         12.32900        5.78200        6.10600
O         12.19900        7.20500        6.13000
C         13.57300        5.35100        6.87600
O         13.46300        5.71000        8.24000
C         13.77800        3.84500        6.78900
O         14.97200        3.46300        7.42300
O         13.84100        3.44700        5.41500
C         12.67200        3.77700        4.65000
C         12.88000        3.25600        3.23500
O         13.10200        1.86000        3.24500
C         10.58400        7.34400        2.36800
O         10.98900        8.29500        3.35900
C          9.04700        7.26900        2.32600
O          8.52600        8.50300        1.83700
C          8.57200        6.13000        1.44900
O          7.16700        6.02300        1.47700
H          8.88900        1.69100        1.09700
H          7.72100        3.67200        0.92600
H          9.25400        3.72900        0.08400
H          8.89000        4.66200        2.91400
H         12.27300        6.10600        2.33700
H         13.21400        5.74300        4.14700
H         11.47000        5.35000        6.57600
H         12.97300        7.60800        5.70600
H         14.40900        5.85000        6.43300
H         12.70300        5.25400        8.63400
H         12.95400        3.36800        7.27800
H         15.72300        3.89200        6.98400
H         11.80400        3.31600        5.07300
H         12.00900        3.46900        2.65100
H         13.73700        3.73800        2.81300
H         12.33000        1.41300        3.62600
H         10.90500        7.65100        1.39500
H         10.68900        7.99900        4.23300
H          8.69300        7.08900        3.31900
H          8.85200        8.65800        0.93700
H          8.86200        6.32800        0.43800
H          6.87400        5.84300        2.38400
