12
8w4x_sugars_model_48_chainB.pdb
O         -3.07500       -6.38000       -5.57800
C         -2.02900       -5.44200       -5.72100
C         -0.73900       -6.13100       -6.13500
O         -0.31000       -7.00800       -5.07100
C          0.95000       -7.65100       -5.34200
O          1.27200       -8.46000       -4.22800
C          0.88400       -8.48100       -6.62400
O          2.17000       -9.04000       -6.88100
C          0.41800       -7.62300       -7.80300
O          0.25600       -8.44000       -8.94600
C         -0.89100       -6.91300       -7.45300
O         -1.28500       -6.03800       -8.48500
