23
8w4x_sugars_model_16_chainC.pdb
O          2.03600       -1.71800        7.83100
C          3.39300       -1.62600        7.43200
C          4.08300       -0.55400        8.24100
O          4.06500       -0.94400        9.61800
C          4.63800        0.01100       10.50700
O          4.65400       -0.49500       11.81200
C          3.40200       -0.49500       12.50400
C          2.92700       -1.93800       12.65500
O          2.54800       -2.47600       11.38100
C          1.74900       -2.02400       13.62900
O          1.41200       -3.38200       13.87100
C          2.10100       -1.35400       14.95300
O          1.01600       -1.36300       15.84600
O          2.47600        0.02200       14.70400
C          3.62600        0.15500       13.86300
C          3.96900        1.63200       13.70800
O          4.31200        2.20700       14.95200
C          6.08300        0.33200       10.12900
O          6.59800        1.36200       10.97500
C          6.17800        0.75600        8.65900
O          7.54700        0.93400        8.30300
C          5.53200       -0.29400        7.78300
O          5.54500        0.10500        6.42300
