24
8w4x_sugars_model_18_chainB_pH74.pdb
O          8.34600        2.19600       -4.91900
C          7.36900        1.19100       -4.71600
C          6.21900        1.37600       -5.68400
O          5.70100        2.71300       -5.53100
C          4.57500        2.98600       -6.37100
O          4.14100        4.30100       -6.11000
C          4.93600        2.81300       -7.84000
O          3.79100        3.06600       -8.63000
C          5.47600        1.40900       -8.08900
O          5.88700        1.29500       -9.43700
C          6.63800        1.12100       -7.14600
O          7.08200       -0.20600       -7.28800
H          9.07700        2.06700       -4.29400
H          7.81200        0.23000       -4.87400
H          6.99800        1.26200       -3.71500
H          5.46200        0.65500       -5.45500
H          3.78700        2.29400       -6.15900
H          4.85900        4.92300       -6.30400
H          5.70300        3.50900       -8.10900
H          3.09000        2.43900       -8.39300
H          4.70500        0.69100       -7.90000
H          6.58600        1.94300       -9.61800
H          7.44200        1.78000       -7.40100
H          6.36200       -0.81400       -7.05900
