45
8w4x_sugars_model_2_chainC_pH74.pdb
O          7.89300        4.04100       -0.73000
C          7.19500        5.15300       -0.18200
C          7.90600        5.62600        1.08000
O          9.16300        6.24400        0.72300
C          9.96700        6.74900        1.80900
O         10.49200        5.61400        2.50600
C         11.90600        5.34200        2.38200
C         12.34600        4.68900        3.67300
O         12.14300        5.58800        4.76900
C         13.81800        4.28200        3.58500
O         14.20600        3.57000        4.74800
C         14.07000        3.39200        2.37100
O         15.43900        3.08800        2.24400
O         13.64200        4.07500        1.18100
C         12.24500        4.43400        1.18100
C         11.93500        5.09300       -0.15700
O         12.26400        4.22400       -1.23200
C          9.15100        7.63200        2.76900
O          9.90100        7.86300        3.96400
C          7.77800        7.02300        3.13000
O          7.00100        7.98600        3.84900
C          7.02500        6.58800        1.88600
O          5.79900        5.96900        2.22700
H          7.44100        3.73900       -1.53300
H          6.19400        4.86200        0.06000
H          7.17200        5.94800       -0.89800
H          8.10100        4.78000        1.70500
H         10.75000        7.36700        1.42000
H         12.42300        6.26200        2.20400
H         11.75900        3.80900        3.83500
H         12.67200        6.39000        4.63200
H         14.39200        5.18000        3.49500
H         13.68000        2.75800        4.82100
H         13.52100        2.48300        2.50300
H         15.94300        3.90800        2.12400
H         11.63100        3.56500        1.29400
H         10.89200        5.32600       -0.20000
H         12.51900        5.98600       -0.24500
H         11.74000        3.41100       -1.16200
H          8.96100        8.55400        2.26000
H         10.06400        7.01800        4.41200
H          7.94400        6.15900        3.73900
H          6.85500        8.76500        3.29000
H          6.79900        7.45000        1.29400
H          5.97300        5.18200        2.76600
