58
5bvs_EIC_conf9.pdb
C         -2.80500       -2.43800        2.05100
C         -1.99200       -3.64300        1.76800
C         -0.68300       -3.43000        1.06500
C          0.16800       -2.51900        1.90400
C          1.56100       -2.28900        1.32400
C          2.32400       -1.40200        2.24200
C          1.83500       -0.02900        2.46100
C          1.86500        0.88700        1.24900
C          1.35000        2.21200        1.69700
C          1.38400        3.34600        0.78600
C          0.71400        3.41300       -0.50100
C         -0.77300        3.27300       -0.47900
C         -1.38000        3.49000       -1.83400
C         -0.97100        2.60600       -2.93200
C         -1.28800        1.15600       -2.82600
C         -2.80000        0.93100       -2.74400
C         -3.05600       -0.54100       -2.67400
C         -2.39100       -1.16000       -1.46800
O         -3.99800       -2.88300        2.69500
O         -2.20100       -1.54500        2.96800
H         -3.14100       -1.85600        1.20100
H         -1.70000       -4.06400        2.78600
H         -2.58100       -4.47500        1.31400
H         -0.81000       -2.98600        0.04300
H         -0.20800       -4.44600        0.97600
H          0.16500       -2.87300        2.92900
H         -0.31200       -1.49900        1.78800
H          1.49500       -1.82800        0.32000
H          2.11300       -3.23800        1.22100
H          2.29400       -1.91500        3.25300
H          3.41300       -1.40200        1.99600
H          2.52300        0.44000        3.22500
H          0.84000        0.02500        2.94900
H          1.34400        0.43300        0.40300
H          2.92100        1.03600        0.92900
H          0.33100        2.12600        2.17600
H          1.99400        2.48700        2.59500
H          2.48700        3.67500        0.62400
H          1.02700        4.26800        1.38800
H          1.13800        2.75200       -1.29700
H          0.90700        4.45200       -0.92500
H         -1.22600        4.02800        0.19300
H         -1.08600        2.28300       -0.12600
H         -1.17700        4.54700       -2.14800
H         -2.49300        3.42000       -1.68300
H          0.10600        2.77400       -3.20500
H         -1.51800        2.96800       -3.85800
H         -0.98900        0.68500       -3.78600
H         -0.78700        0.61100       -2.02700
H         -3.28200        1.30100       -3.67900
H         -3.23900        1.47100       -1.90500
H         -2.76500       -1.08100       -3.58900
H         -4.15200       -0.76000       -2.54800
H         -2.40800       -0.45900       -0.60500
H         -1.32200       -1.39200       -1.67100
H         -2.90700       -2.10600       -1.22300
H         -4.54500       -2.05300        2.79200
H         -2.87000       -0.83000        3.13200
