58
5bvs_EIC_conf33.pdb
C          1.60600        4.82300       -0.90500
C          1.16300        4.50200       -2.30500
C         -0.16700        3.89600       -2.45400
C         -0.52300        2.60700       -1.87400
C          0.10100        1.34200       -2.28400
C          1.57300        1.12900       -2.09700
C          2.00100       -0.24700       -2.49400
C          1.55200       -1.40500       -1.68300
C          2.15300       -1.35500       -0.26300
C          1.89600       -2.54800        0.54600
C          0.54900       -2.87400        1.00900
C         -0.10800       -2.08000        2.04700
C         -0.50100       -0.70400        2.02000
C         -1.49800       -0.11100        1.12500
C         -2.91200       -0.58500        1.18800
C         -3.18700       -1.99000        0.76600
C         -2.81100       -2.16700       -0.70300
C         -3.07600       -3.60300       -1.07800
O          2.89600        5.38000       -0.99600
O          1.63000        3.80300       -0.01200
H          0.99100        5.64600       -0.46100
H          1.92600        4.04800       -2.92300
H          1.04800        5.56100       -2.77400
H         -0.34500        3.81800       -3.58900
H         -0.98400        4.64600       -2.18200
H         -1.65100        2.48300       -2.05600
H         -0.48900        2.71100       -0.74500
H         -0.40500        0.45300       -1.87600
H         -0.10500        1.18400       -3.42900
H          2.11600        1.83100       -2.75900
H          1.86700        1.37600       -1.05400
H          1.73500       -0.36000       -3.58700
H          3.13400       -0.29900       -2.52100
H          0.46000       -1.33100       -1.51000
H          1.72300       -2.38100       -2.14300
H          1.66000       -0.46500        0.18800
H          3.25900       -1.20000       -0.33900
H          2.53200       -2.39600        1.50300
H          2.39900       -3.46900        0.06600
H         -0.15000       -3.11900        0.14800
H          0.64400       -3.93900        1.46900
H          0.66400       -2.12500        2.95600
H         -0.92700       -2.71000        2.52400
H         -0.93300       -0.49300        3.09100
H          0.37400        0.03200        2.06600
H         -1.16300       -0.06300        0.05900
H         -1.55500        0.99600        1.40500
H         -3.59100        0.06100        0.56900
H         -3.31800       -0.43700        2.23200
H         -2.86200       -2.78900        1.40900
H         -4.33400       -2.06100        0.75100
H         -1.78500       -1.87000       -0.89100
H         -3.53500       -1.53400       -1.28900
H         -3.80700       -4.07000       -0.40300
H         -2.13400       -4.19000       -0.99500
H         -3.45900       -3.69300       -2.12100
H          3.49400        4.64000       -1.27100
H          2.54100        3.42900        0.17000
