58
5bvs_EIC_conf16.pdb
C          3.87000        5.01900       -2.10600
C          2.48700        5.55200       -1.78700
C          1.51000        4.36800       -1.60600
C          0.19500        4.97100       -1.30000
C         -0.97200        4.09700       -1.08300
C         -1.00800        3.13700        0.02000
C         -0.02000        2.05400        0.14400
C          0.05500        1.11600       -1.02000
C          1.13800        0.07400       -0.70400
C          1.26700       -0.87600       -1.83900
C          0.09900       -1.67700       -2.22200
C         -0.47400       -2.65100       -1.25200
C          0.52800       -3.71400       -0.84900
C          0.04700       -4.78700        0.02300
C         -0.51700       -4.62100        1.35800
C          0.25800       -4.03400        2.46900
C          0.62400       -2.60600        2.39600
C         -0.60100       -1.70500        2.39700
O          4.29000        4.20900       -1.04200
O          4.78900        6.06100       -2.17800
H          3.86400        4.42800       -3.02800
H          2.14400        6.21400       -2.60800
H          2.52400        6.14500       -0.85400
H          1.52000        3.84600       -2.60800
H          1.94900        3.67100       -0.91200
H          0.24300        5.72500       -0.47000
H         -0.06200        5.62400       -2.19800
H         -1.83800        4.81900       -0.88000
H         -1.31200        3.66200       -2.07300
H         -2.03400        2.68800        0.06300
H         -0.95100        3.73000        0.98300
H         -0.46200        1.37800        0.97600
H          0.95800        2.30600        0.59300
H         -0.89500        0.55300       -1.12500
H          0.38200        1.57700       -1.97100
H          2.09000        0.69000       -0.71100
H          1.07800       -0.33500        0.29400
H          1.53500       -0.24000       -2.74000
H          2.20600       -1.49500       -1.71000
H          0.40800       -2.29400       -3.12400
H         -0.73800       -1.04200       -2.62200
H         -1.26100       -3.22500       -1.83400
H         -1.02200       -2.20700       -0.42500
H          1.50300       -3.26500       -0.54000
H          0.86100       -4.25400       -1.82700
H          0.86700       -5.61600        0.11200
H         -0.69700       -5.38900       -0.64900
H         -1.48400       -4.02600        1.30300
H         -0.86800       -5.68100        1.67100
H         -0.34100       -4.22200        3.42900
H          1.19400       -4.66200        2.56800
H          1.22200       -2.37700        1.52100
H          1.25100       -2.36400        3.29900
H         -0.94700       -1.62800        3.48300
H         -1.46700       -2.11100        1.87000
H         -0.33500       -0.67100        2.13900
H          4.08700        4.61900       -0.16100
H          4.74900        6.59500       -1.34600
