58
5bvs_EIC_conf35.pdb
C         -3.08000        2.34900        4.31400
C         -3.09200        1.18500        3.37300
C         -1.94800        1.18100        2.38200
C         -0.61300        1.13800        3.04100
C          0.52600        1.13000        2.02400
C          0.54200        2.33300        1.14400
C          1.68400        2.31200        0.16100
C          1.61700        1.09700       -0.75900
C          0.34700        1.07500       -1.54300
C          0.19900       -0.08200       -2.49900
C          0.23200       -1.39000       -1.76700
C          0.13000       -2.61900       -2.55500
C          1.12100       -3.21400       -3.41500
C          1.87800       -2.57800       -4.48700
C          2.96900       -1.64100       -4.05500
C          3.65000       -0.99100       -5.26800
C          4.73100       -0.07000       -4.74800
C          4.16600        1.00900       -3.85600
O         -3.15900        3.57600        3.67700
O         -4.23700        2.24300        5.09000
H         -2.23800        2.30500        5.04400
H         -4.04500        1.14900        2.84000
H         -2.96900        0.26700        3.99400
H         -2.07300        0.25700        1.78000
H         -1.99500        2.03200        1.68500
H         -0.51100        0.21900        3.64600
H         -0.47100        2.01100        3.73500
H          0.31900        0.22300        1.38000
H          1.50300        1.02400        2.50900
H          0.68300        3.22700        1.81600
H         -0.39600        2.47600        0.54300
H          2.65200        2.32100        0.70400
H          1.66100        3.25000       -0.45500
H          1.67200        0.22500       -0.09400
H          2.49600        1.12900       -1.46700
H          0.21200        2.01600       -2.12500
H         -0.53200        1.01500       -0.85300
H          0.79300        0.05000       -3.38000
H         -0.90700        0.01500       -2.84600
H         -0.67000       -1.34600       -1.07000
H          1.07900       -1.41000       -1.02500
H         -0.16000       -3.46600       -1.80300
H         -0.87200       -2.60400       -3.14400
H          1.87200       -3.84100       -2.79300
H          0.57500       -4.11100       -3.92800
H          2.41200       -3.39600       -5.08000
H          1.23800       -2.11100       -5.28700
H          3.82000       -2.32800       -3.67800
H          2.72600       -0.94000       -3.28300
H          4.16900       -1.75900       -5.87700
H          2.91900       -0.48300       -5.89900
H          5.34200        0.35800       -5.56000
H          5.40300       -0.70400       -4.09700
H          4.48000        0.87900       -2.78800
H          4.54800        2.01100       -4.16400
H          3.06200        0.97400       -3.89300
H         -3.98700        4.08600        3.86300
H         -4.11900        1.48300        5.72800
