58
5bvs_EIC_conf31.pdb
C          1.53600        1.28200       -3.79500
C          1.67300        1.17200       -2.30400
C          1.99300       -0.30500       -1.91500
C          2.11600       -0.35200       -0.44600
C          2.45200       -1.57900        0.24300
C          1.71100       -2.82900        0.34600
C          1.28300       -3.71100       -0.70200
C          0.26100       -3.51400       -1.72500
C         -1.14600       -3.36500       -1.34100
C         -1.70000       -2.31800       -0.50300
C         -1.65000       -0.90500       -0.91100
C         -2.31100        0.00700        0.10700
C         -1.72700        0.00800        1.46200
C         -2.47100        0.96500        2.40400
C         -2.43500        2.39400        1.93800
C         -3.16600        3.33300        2.87900
C         -2.55000        3.30300        4.25500
C         -1.10500        3.73000        4.12700
O          0.52400        0.48100       -4.27900
O          2.71100        0.93300       -4.45600
H          1.29700        2.33100       -4.02800
H          2.50500        1.78700       -1.91600
H          0.70400        1.45200       -1.84700
H          2.99400       -0.55100       -2.34900
H          1.24300       -0.89000       -2.40900
H          2.92500        0.44400       -0.20600
H          1.23700        0.12800        0.08100
H          3.57400       -1.85300        0.03100
H          2.61900       -1.26600        1.36700
H          2.42000       -3.49500        1.00900
H          0.89000       -2.70200        1.16300
H          1.09200       -4.77500       -0.25300
H          2.24700       -3.97900       -1.30300
H          0.63900       -2.93100       -2.57500
H          0.25800       -4.57000       -2.26500
H         -1.81800       -3.43500       -2.27000
H         -1.43000       -4.35800       -0.83500
H         -1.39500       -2.42100        0.59000
H         -2.81600       -2.55000       -0.39600
H         -2.28400       -0.81200       -1.84300
H         -0.69900       -0.44800       -1.13300
H         -2.23800        1.05600       -0.30800
H         -3.39700       -0.17700        0.17400
H         -0.67100        0.38600        1.50000
H         -1.79200       -1.02000        1.89700
H         -1.92700        0.93200        3.38100
H         -3.53000        0.65900        2.49500
H         -2.73900        2.55100        0.89200
H         -1.35000        2.70600        1.96500
H         -2.99800        4.36100        2.46700
H         -4.24900        3.10500        2.90000
H         -2.62100        2.29600        4.70800
H         -3.06700        4.01800        4.94000
H         -0.75900        4.26600        5.04800
H         -0.43000        2.85400        3.98200
H         -0.95500        4.39400        3.25000
H         -0.34500        0.86500       -4.00100
H          2.54100        1.14700       -5.41800
