58
5bvs_EIC_conf37.pdb
C          2.01300       -2.32000       -0.92200
C          0.56300       -2.40900       -1.23900
C         -0.03400       -1.50400       -2.21800
C         -0.05400       -0.04700       -2.07800
C          1.25000        0.69200       -2.01100
C          0.92400        2.17700       -2.01000
C          2.04700        3.07600       -1.98800
C          3.07900        3.27400       -1.01400
C          2.91800        3.83500        0.32100
C          2.16900        3.35600        1.46600
C          0.70700        3.17800        1.33100
C          0.08800        2.89700        2.71800
C         -1.38700        2.72000        2.64300
C         -1.85000        1.51100        1.86200
C         -1.34600        0.23800        2.54000
C         -1.80400       -0.97500        1.79600
C         -1.33500       -2.25700        2.46700
C          0.15000       -2.35300        2.58700
O          2.82900       -2.50100       -2.04700
O          2.31900       -3.51000       -0.14700
H          2.34600       -1.52900       -0.24900
H          0.41500       -3.49600       -1.60200
H          0.00800       -2.44000       -0.25700
H          0.30600       -1.82200       -3.26300
H         -1.14700       -1.80600       -2.28300
H         -0.69600        0.35000       -2.93000
H         -0.70200        0.19600       -1.18400
H          1.77100        0.39600       -1.10700
H          1.85600        0.51000       -2.91900
H          0.44100        2.29300       -3.05600
H          0.06900        2.34300       -1.36000
H          2.56600        3.01700       -3.03700
H          1.57200        4.13200       -2.14700
H          3.74000        2.34400       -0.85700
H          3.90100        3.94900       -1.50500
H          2.66700        4.99400        0.19300
H          4.00400        4.01500        0.77600
H          2.30800        4.12600        2.30500
H          2.63300        2.38600        1.84600
H          0.55100        2.19700        0.81800
H          0.22400        3.98100        0.79500
H          0.27800        3.81100        3.31600
H          0.55400        2.00300        3.12800
H         -1.88500        3.59800        2.14400
H         -1.82900        2.64300        3.63800
H         -1.54100        1.53500        0.80000
H         -2.95200        1.48300        1.91900
H         -1.64700        0.22900        3.60600
H         -0.22800        0.20700        2.56000
H         -2.92600       -1.01800        1.84100
H         -1.52200       -0.95800        0.74400
H         -1.71000       -3.07900        1.79500
H         -1.84900       -2.38800        3.44600
H          0.70600       -1.68800        1.91300
H          0.44800       -3.40300        2.36400
H          0.51800       -2.15000        3.62000
H          2.66500       -1.78300       -2.71300
H          3.28800       -3.39300        0.07400
