58
5bvs_EIC_conf26.pdb
C          3.31200       -2.19200        0.27600
C          3.47600       -0.92800        1.11900
C          4.01000        0.20600        0.28600
C          3.21700        0.65400       -0.85000
C          1.84800        1.24800       -0.63300
C          1.85100        2.44100        0.22000
C          0.62800        3.20600        0.36600
C         -0.68200        2.82300        0.89900
C         -0.68400        2.27000        2.27500
C         -0.28900        0.83200        2.43900
C         -1.46400       -0.04000        1.96600
C         -1.20900       -1.48800        2.02800
C         -0.39000       -2.15200        0.99400
C         -1.05300       -2.42500       -0.29000
C         -1.70600       -1.50300       -1.17600
C         -0.98800       -0.38600       -1.84400
C          0.16400       -0.85800       -2.70800
C         -0.34000       -1.80000       -3.80300
O          4.54600       -2.58000       -0.25800
O          2.87400       -3.23100        1.09300
H          2.61300       -2.01100       -0.56000
H          2.58000       -0.72100        1.69300
H          4.27700       -1.13300        1.89500
H          4.37500        1.02100        0.96000
H          4.98800       -0.19800       -0.13700
H          3.80100        1.37700       -1.48600
H          3.08000       -0.22900       -1.54500
H          1.20300        0.47100       -0.17900
H          1.42000        1.51100       -1.61800
H          2.62000        3.19600       -0.21200
H          2.24000        2.18900        1.26600
H          0.43900        3.76800       -0.65000
H          0.87600        4.19300        0.98200
H         -1.30500        2.22700        0.18700
H         -1.29000        3.79400        0.95700
H         -0.06200        2.91000        2.95800
H         -1.71700        2.35400        2.74200
H          0.66700        0.56500        2.05000
H         -0.21200        0.68700        3.56300
H         -2.27800        0.19300        2.68300
H         -1.75300        0.37100        1.00100
H         -2.22700       -1.98400        2.13400
H         -0.77400       -1.67700        3.06400
H          0.57800       -1.62200        0.79300
H         -0.06200       -3.13300        1.40500
H         -0.23800       -2.96300       -0.92300
H         -1.74100       -3.34900       -0.11800
H         -2.66200       -1.04600       -0.77700
H         -2.13700       -2.12000       -2.05000
H         -1.74600       -0.01100       -2.63800
H         -0.79300        0.50100       -1.27300
H          0.58500        0.01200       -3.25900
H          0.94700       -1.37000       -2.15600
H         -1.35900       -1.41600       -4.08600
H          0.30900       -1.81500       -4.68900
H         -0.49500       -2.82200       -3.42100
H          5.28500       -2.39800        0.40600
H          3.63800       -3.75700        1.44000
