58
5bvs_EIC_conf18.pdb
C          3.25000        5.45500       -0.58700
C          2.69400        4.58400        0.52100
C          3.77200        3.66900        1.04300
C          3.27700        2.77500        2.15000
C          2.13600        1.88900        1.68600
C          1.71700        1.04100        2.85600
C          0.55800        0.08600        2.49500
C         -0.64700        0.81000        2.05100
C         -1.84300        0.00600        1.67200
C         -2.52400       -0.81900        2.67100
C         -1.95500       -1.91100        3.39500
C         -1.42400       -3.20900        3.01100
C         -0.38500       -3.51100        2.04000
C         -0.52400       -3.76700        0.62000
C         -1.15600       -3.02400       -0.44800
C         -2.64800       -2.95900       -0.30400
C         -3.35800       -2.21300       -1.38800
C         -2.99900       -0.79200       -1.57800
O          2.27400        6.31900       -1.09600
O          4.27700        6.27600       -0.11300
H          3.64900        4.88000       -1.42800
H          1.83500        4.03800        0.07900
H          2.37700        5.27900        1.32100
H          4.17400        3.07700        0.19600
H          4.58300        4.29300        1.43600
H          2.94400        3.38400        3.00000
H          4.11500        2.11700        2.43800
H          1.28200        2.51100        1.34500
H          2.53000        1.23700        0.90200
H          1.43500        1.65900        3.72200
H          2.54200        0.37300        3.17500
H          0.98300       -0.48500        1.62400
H          0.37700       -0.60900        3.30300
H         -0.99200        1.59200        2.77100
H         -0.35700        1.37100        1.10400
H         -1.53300       -0.61900        0.83900
H         -2.64600        0.68400        1.22500
H         -3.50300       -1.16300        2.18500
H         -2.99600       -0.04000        3.40900
H         -1.36200       -1.52200        4.34600
H         -2.90300       -2.24900        4.09000
H         -2.35200       -3.87100        2.70300
H         -1.20900       -3.80200        4.01500
H          0.17200       -4.45600        2.47900
H          0.51200       -2.77600        2.20400
H          0.56100       -4.07900        0.23100
H         -0.93900       -4.88400        0.58700
H         -1.00900       -3.62000       -1.42700
H         -0.67300       -2.05900       -0.72800
H         -2.97400       -4.05700       -0.49100
H         -3.03300       -2.77900        0.69200
H         -3.32600       -2.80900       -2.33200
H         -4.45000       -2.23300       -1.10000
H         -3.28700       -0.51100       -2.63300
H         -3.54100       -0.07800       -0.93800
H         -1.91500       -0.56900       -1.53100
H          1.55000        5.76800       -1.47200
H          4.72900        6.66800       -0.90100
