58
5bvs_EIC_conf12.pdb
C         -1.42600       -2.27600        2.73800
C         -2.12400       -2.80900        1.50900
C         -1.67400       -2.00300        0.27900
C         -2.37300       -2.56200       -0.92400
C         -2.08400       -1.97800       -2.23800
C         -2.37400       -0.59800       -2.58300
C         -1.79700        0.55500       -1.89500
C         -0.29600        0.65500       -1.85500
C          0.32700        0.66500       -3.21500
C          1.79200        0.73300       -3.28600
C          2.57700        1.85400       -2.81700
C          2.59800        2.35500       -1.44400
C          2.98200        1.39000       -0.35100
C          3.05100        2.06200        0.97700
C          1.84400        2.72800        1.48700
C          0.62700        1.91600        1.72900
C         -0.43900        2.90600        2.23800
C         -1.74500        2.25400        2.52800
O         -1.74600       -0.94200        2.92900
O         -0.04800       -2.34600        2.49200
H         -1.66100       -2.88700        3.62700
H         -1.89400       -3.87500        1.35900
H         -3.20100       -2.65600        1.64800
H         -1.82400       -0.95700        0.49600
H         -0.58700       -2.28000        0.16000
H         -3.49400       -2.62500       -0.71300
H         -2.08700       -3.66800       -0.92000
H         -2.67900       -2.61500       -2.99100
H         -1.03100       -2.30400       -2.50700
H         -2.26700       -0.49800       -3.71800
H         -3.51300       -0.47700       -2.48300
H         -2.10300        1.47000       -2.52500
H         -2.28400        0.75600       -0.93300
H          0.21900       -0.05400       -1.22000
H         -0.10300        1.68600       -1.43200
H         -0.07900        1.49400       -3.85600
H         -0.08400       -0.26200       -3.73200
H          2.20200       -0.24800       -2.88100
H          2.04600        0.61800       -4.40400
H          3.65700        1.64600       -3.12000
H          2.36100        2.76700       -3.47500
H          3.47800        3.11100       -1.41900
H          1.74800        3.00100       -1.22700
H          2.33000        0.51900       -0.24600
H          3.98100        0.98900       -0.62000
H          3.89900        2.78400        0.97600
H          3.31900        1.24900        1.71900
H          1.55400        3.55700        0.78800
H          2.05200        3.27300        2.45900
H          0.18200        1.40200        0.88700
H          0.79500        1.15000        2.54600
H          0.01100        3.42700        3.08000
H         -0.54900        3.65400        1.40300
H         -1.66800        1.81500        3.56400
H         -2.52800        3.03300        2.61900
H         -2.06900        1.53000        1.78200
H         -1.13500       -0.52400        3.59400
H          0.28000       -1.46400        2.13100
