58
5bvs_EIC_conf10.pdb
C         -2.47500       -3.23900        0.17300
C         -3.09900       -1.92400        0.38500
C         -2.72200       -0.82700       -0.59300
C         -3.05200       -1.10100       -1.99600
C         -2.65900       -0.02700       -2.93700
C         -3.23800        1.31800       -2.88200
C         -3.09400        2.19700       -1.71600
C         -1.66100        2.51300       -1.32100
C         -1.63100        3.40900       -0.12400
C         -0.23900        3.76300        0.29800
C          0.61200        2.55900        0.69100
C          1.93700        3.07200        1.09200
C          2.98500        2.14400        1.54300
C          3.51400        1.10800        0.65700
C          2.67800        0.05500        0.08500
C          1.95300       -0.81900        1.07300
C          2.92900       -1.54000        1.98700
C          2.22800       -2.43000        2.99600
O         -2.69800       -3.88500       -1.00500
O         -1.07900       -3.19000        0.37000
H         -2.82800       -3.91700        1.00600
H         -2.74500       -1.53900        1.37900
H         -4.18500       -1.95600        0.46400
H         -1.63600       -0.57000       -0.48900
H         -3.28300        0.04900       -0.23200
H         -4.17200       -1.26100       -2.09600
H         -2.62400       -2.06200       -2.38800
H         -1.52100        0.01200       -2.91500
H         -2.86800       -0.43200       -3.98700
H         -2.91800        1.91400       -3.80300
H         -4.36700        1.23800       -3.07100
H         -3.78600        2.05500       -0.88000
H         -3.44200        3.24400       -2.11800
H         -1.19700        3.10600       -2.16100
H         -1.06600        1.60700       -1.21600
H         -2.17800        4.34800       -0.43900
H         -2.24100        3.01900        0.72400
H          0.26700        4.35900       -0.49400
H         -0.30300        4.47800        1.17100
H          0.07500        2.07600        1.56100
H          0.54300        1.85800       -0.12100
H          1.74900        3.77400        1.96700
H          2.35400        3.76300        0.31800
H          3.88100        2.82200        1.77100
H          2.76400        1.77300        2.59100
H          4.39200        0.60300        1.18000
H          4.02400        1.63800       -0.21200
H          3.42700       -0.69100       -0.38200
H          2.04900        0.28800       -0.78900
H          1.16700       -0.31500        1.64900
H          1.43100       -1.60300        0.47900
H          3.64600       -2.11600        1.38700
H          3.48500       -0.77500        2.56700
H          2.27700       -1.99100        4.03300
H          2.76000       -3.40400        3.09200
H          1.14600       -2.55100        2.78000
H         -1.91600       -4.36000       -1.39100
H         -0.87200       -3.08700        1.31500
