58
5bvs_EIC_conf43.pdb
C          1.22400        6.98600       -0.45800
C          1.25800        6.02500       -1.61100
C          1.46400        4.61100       -1.16600
C          2.73900        4.41700       -0.43900
C          2.96600        2.96900       -0.02100
C          3.02000        2.00600       -1.16800
C          3.25400        0.61400       -0.62400
C          2.20400        0.13000        0.30800
C          0.82400        0.06300       -0.29800
C         -0.09200       -0.44600        0.79500
C         -1.51800       -0.56300        0.32600
C         -1.69800       -1.49400       -0.82100
C         -1.26100       -2.92700       -0.51500
C         -2.01000       -3.52400        0.60100
C         -1.64400       -4.91500        0.94900
C         -0.32400       -5.26500        1.47500
C          0.91500       -5.01600        0.72000
C          1.00400       -5.64200       -0.63900
O          0.21400        6.68300        0.45100
O          2.41900        7.10900        0.19400
H          0.90000        7.99000       -0.89500
H          2.06600        6.31900       -2.34900
H          0.27700        6.08400       -2.18000
H          1.44800        3.91200       -2.05100
H          0.56500        4.37400       -0.51300
H          2.74100        4.96100        0.55600
H          3.61200        4.80600       -0.99000
H          2.19100        2.66500        0.71800
H          3.92200        2.98100        0.54100
H          3.95500        2.24300       -1.75600
H          2.20200        2.05800       -1.87900
H          3.34900       -0.13700       -1.44400
H          4.21700        0.59700       -0.07200
H          2.22200        0.70000        1.24900
H          2.47400       -0.91400        0.59300
H          0.78500       -0.70200       -1.10000
H          0.48600        0.99900       -0.74000
H          0.31500       -1.37200        1.21100
H         -0.12000        0.29100        1.64100
H         -2.18600       -0.85600        1.15300
H         -1.82100        0.44300        0.00000
H         -1.15200       -1.19200       -1.72900
H         -2.77500       -1.54900       -1.07900
H         -0.17700       -3.02000       -0.54800
H         -1.60500       -3.48300       -1.45100
H         -3.11200       -3.57200        0.29700
H         -2.06500       -2.85600        1.50700
H         -1.86600       -5.57000        0.03700
H         -2.41100       -5.36100        1.68500
H         -0.19200       -4.72000        2.47400
H         -0.29500       -6.35100        1.84400
H          1.72800       -5.58300        1.32200
H          1.28300       -3.98900        0.73000
H          0.19500       -5.40000       -1.33000
H          1.08600       -6.76500       -0.57700
H          1.97300       -5.31700       -1.08300
H         -0.08700        7.45300        0.97100
H          2.35600        7.81200        0.86700
