58
5bvs_EIC_conf40.pdb
C         -1.84000       -4.81600        0.34400
C         -1.92600       -3.56900       -0.50200
C         -0.57700       -3.15900       -1.04900
C          0.04800       -4.19900       -1.90800
C          1.37800       -3.71100       -2.41400
C          2.38000       -3.39100       -1.35700
C          3.68100       -2.91600       -2.01400
C          4.73200       -2.58000       -0.98200
C          4.30400       -1.49300       -0.04300
C          3.99000       -0.20500       -0.72700
C          3.55600        0.90000        0.24100
C          2.32900        0.51300        0.99800
C          1.86600        1.57600        1.96400
C          1.53400        2.87600        1.26700
C          0.43500        2.70100        0.25100
C          0.13400        4.03600       -0.42600
C         -0.96700        3.84200       -1.43800
C         -0.54500        2.84800       -2.46900
O         -3.15300       -5.09500        0.79200
O         -1.07800       -4.64900        1.47200
H         -1.56100       -5.65200       -0.30200
H         -2.30900       -2.71500        0.09400
H         -2.62700       -3.71600       -1.34300
H         -0.76800       -2.25600       -1.68000
H          0.08400       -2.81600       -0.23200
H         -0.59500       -4.34800       -2.82600
H          0.10300       -5.19600       -1.45000
H          1.84100       -4.45000       -3.13000
H          1.26900       -2.78600       -3.03600
H          2.04900       -2.67300       -0.60200
H          2.63900       -4.34600       -0.84500
H          4.10800       -3.72100       -2.64700
H          3.53100       -2.01200       -2.63800
H          5.63700       -2.26800       -1.55300
H          4.99100       -3.51200       -0.47800
H          5.19300       -1.31100        0.63100
H          3.48200       -1.86000        0.58200
H          3.19400       -0.36900       -1.49100
H          4.90100        0.14700       -1.25400
H          3.45900        1.80700       -0.35500
H          4.39800        1.06400        0.94200
H          1.48400        0.22000        0.37600
H          2.60800       -0.36500        1.65200
H          0.90400        1.20200        2.38900
H          2.56200        1.71300        2.79700
H          2.39100        3.34700        0.77700
H          1.16500        3.57900        2.04200
H          0.69900        1.96200       -0.53200
H         -0.52200        2.36400        0.73000
H         -0.10900        4.80400        0.32600
H          1.04700        4.37700       -0.96500
H         -1.24900        4.79700       -1.89300
H         -1.88600        3.49400       -0.88600
H         -1.15700        1.91300       -2.38800
H         -0.74200        3.21500       -3.51800
H          0.53300        2.63400       -2.45100
H         -3.08300       -5.74500        1.53900
H         -0.16100       -4.99100        1.26200
