58
5bvs_EIC_conf24.pdb
C         -2.39100        2.06400       -2.58900
C         -1.12300        1.57100       -3.23200
C         -0.90200        0.10200       -3.05600
C         -0.81000       -0.29300       -1.58900
C         -0.59000       -1.78300       -1.57300
C         -0.47500       -2.40200       -0.22600
C         -1.71800       -2.18300        0.60400
C         -1.62100       -2.80700        1.94600
C         -0.61400       -2.33400        2.90500
C         -0.66800       -0.98900        3.47000
C         -0.54500        0.24600        2.70800
C          0.77800        0.47700        1.98200
C          1.93500        0.50600        2.87700
C          3.32000        0.64100        2.48600
C          3.96000        1.71100        1.76100
C          3.78900        2.10200        0.37500
C          2.49700        2.51900       -0.20500
C          2.66000        2.96500       -1.67300
O         -3.46800        1.39400       -3.16400
O         -2.49200        3.42700       -2.89000
H         -2.40300        1.96900       -1.50100
H         -0.24600        2.14700       -2.92800
H         -1.23900        1.74300       -4.32600
H          0.08600       -0.14200       -3.49900
H         -1.65300       -0.50500       -3.58700
H         -1.72700       -0.06400       -1.04900
H          0.03000        0.26100       -1.13900
H         -1.30300       -2.30800       -2.24400
H          0.41000       -1.93500       -2.08000
H         -0.46400       -3.52300       -0.41500
H          0.46600       -2.14100        0.23600
H         -2.51600       -2.79200        0.05200
H         -2.09500       -1.16000        0.61000
H         -2.64400       -2.90700        2.41900
H         -1.37700       -3.90900        1.74000
H          0.38900       -2.54000        2.43100
H         -0.58400       -3.05000        3.79800
H         -1.66400       -0.89100        4.04400
H          0.07600       -0.94900        4.33800
H         -1.35600        0.51000        2.02900
H         -0.57300        1.09600        3.48000
H          0.80600       -0.06400        1.06700
H          0.62900        1.57800        1.65900
H          1.76800        1.27700        3.72700
H          1.85800       -0.46000        3.51200
H          3.90900        0.56900        3.49600
H          3.73100       -0.33600        2.02000
H          3.95800        2.69900        2.37300
H          5.10800        1.49100        1.85800
H          4.31800        1.36000       -0.34700
H          4.48500        3.01100        0.19300
H          1.93800        3.30200        0.30900
H          1.81600        1.61900       -0.29800
H          3.30600        3.87000       -1.69700
H          1.65400        3.29100       -2.00800
H          3.07400        2.16500       -2.30000
H         -4.03900        1.01900       -2.44900
H         -1.98900        3.98800       -2.24600
