58
5bvs_EIC_conf15.pdb
C         -2.40900        2.16100        1.81000
C         -1.45700        2.29300        0.62700
C         -1.37600        3.70600        0.14200
C         -0.44300        3.87000       -1.03000
C          0.97500        3.49400       -0.77200
C          1.86200        3.69300       -1.99300
C          3.24700        3.30500       -1.81100
C          3.73000        1.93300       -1.63000
C          3.64100        0.95000       -2.70400
C          2.45700        0.41100       -3.34000
C          1.49400       -0.47000       -2.67300
C          0.78100        0.03300       -1.49700
C         -0.21100       -0.98400       -0.91900
C          0.41400       -2.25400       -0.48000
C         -0.63900       -3.18500        0.06000
C         -1.32300       -2.56400        1.22400
C         -2.39000       -3.47800        1.82000
C         -3.45200       -3.81200        0.80900
O         -2.00900        2.94200        2.89100
O         -2.46100        0.84000        2.24700
H         -3.41500        2.51200        1.52900
H         -0.46300        1.89800        0.87700
H         -1.88400        1.61900       -0.16200
H         -2.39500        3.97600       -0.26600
H         -1.10300        4.39700        0.96600
H         -0.90500        3.25600       -1.85800
H         -0.51900        4.92200       -1.41900
H          1.04200        2.51500       -0.31000
H          1.36800        4.25700       -0.01600
H          1.83800        4.81600       -2.15900
H          1.34100        3.30700       -2.89100
H          3.90300        3.82900       -2.59900
H          3.61000        3.87000       -0.87700
H          4.85700        2.05400       -1.38600
H          3.38600        1.48000       -0.65900
H          4.42300        1.17300       -3.52800
H          4.18100        0.01000       -2.26500
H          2.84100       -0.17700       -4.26800
H          1.83400        1.19900       -3.88000
H          0.69800       -0.76400       -3.44900
H          1.94800       -1.50700       -2.46800
H          0.13000        0.90200       -1.75300
H          1.48000        0.22500       -0.65900
H         -1.01600       -1.18100       -1.64200
H         -0.67000       -0.43400       -0.05700
H          0.85200       -2.79600       -1.36900
H          1.20600       -2.12800        0.28700
H         -1.42300       -3.33300       -0.73800
H         -0.24900       -4.20300        0.25600
H         -0.60700       -2.25100        1.99200
H         -1.91800       -1.67200        0.86600
H         -1.96900       -4.38200        2.28700
H         -2.90300       -2.87300        2.60900
H         -3.68300       -2.93300        0.18900
H         -4.40700       -4.08400        1.30700
H         -3.17200       -4.69100        0.17900
H         -2.60000        3.69800        3.08000
H         -3.39900        0.63500        2.46600
