58
5bvs_EIC_conf14.pdb
C          3.62900       -3.03500        1.38500
C          2.56800       -3.16600        2.44100
C          1.82700       -1.82500        2.50200
C          0.76700       -1.97100        3.56400
C         -0.07300       -0.74000        3.77000
C         -0.82200       -0.31700        2.52300
C         -1.59700        0.93000        2.95000
C         -2.42200        1.52200        1.86400
C         -1.56800        1.94100        0.64900
C         -0.55700        2.94300        1.00600
C          0.31000        3.45500       -0.07000
C         -0.20800        4.21200       -1.19700
C         -1.16000        3.79800       -2.21100
C         -0.84600        2.69300       -3.12300
C         -0.64800        1.35300       -2.53600
C         -0.34900        0.37200       -3.67500
C         -0.13500       -1.01900       -3.14800
C         -1.32500       -1.55900       -2.41600
O          4.50000       -2.01400        1.72200
O          4.25300       -4.25400        1.15800
H          3.11600       -2.71800        0.43600
H          2.98600       -3.34800        3.43300
H          1.78900       -3.90000        2.13000
H          1.45400       -1.60500        1.50600
H          2.60400       -1.09100        2.79900
H          1.28800       -2.15300        4.52700
H          0.13300       -2.85800        3.37100
H         -0.83500       -1.01100        4.52900
H          0.48800        0.11800        4.13700
H         -0.10700        0.04100        1.73100
H         -1.53000       -1.05100        2.14400
H         -0.84300        1.66400        3.29300
H         -2.19400        0.69700        3.86600
H         -3.20300        0.82000        1.54000
H         -2.82500        2.48200        2.24900
H         -2.28900        2.26600       -0.09300
H         -1.07200        1.01600        0.24300
H         -1.07000        3.84100        1.48300
H          0.14400        2.50300        1.78600
H          1.09900        2.67200       -0.31000
H          1.02500        4.21500        0.48200
H          0.67600        4.68200       -1.79500
H         -0.61400        5.21800       -0.73400
H         -2.20800        3.73700       -1.78800
H         -1.27300        4.73100       -2.90500
H          0.04100        2.98200       -3.79200
H         -1.65600        2.56200       -3.92200
H         -1.59900        0.95800       -2.07300
H          0.13400        1.34100       -1.79200
H         -1.20700        0.34200       -4.37400
H          0.54300        0.68000       -4.23900
H          0.07200       -1.65900       -4.03100
H          0.77200       -1.07900       -2.49600
H         -1.41600       -2.64800       -2.63700
H         -2.28600       -1.11300       -2.67300
H         -1.17000       -1.43100       -1.32900
H          5.27800       -2.01700        1.08200
H          3.90000       -4.93600        1.77500
