58
5bvs_EIC_conf1.pdb
C         -1.62000        3.41800        4.47200
C         -0.95600        4.02900        3.29000
C         -0.77000        3.12500        2.12500
C          0.07300        1.91700        2.35400
C          1.47800        2.31800        2.76600
C          2.35300        1.13300        3.00900
C          2.53700        0.22800        1.83800
C          3.15600        0.95300        0.69000
C          3.36800        0.07800       -0.52700
C          2.11100       -0.51300       -1.07600
C          2.43100       -1.35700       -2.27300
C          1.20200       -1.99300       -2.88800
C          0.47300       -2.88600       -1.94800
C         -0.77400       -3.53400       -2.54700
C         -0.41700       -4.37000       -3.73100
C         -1.53000       -5.08200       -4.37800
C         -2.65900       -4.33500       -4.95800
C         -3.51300       -3.50100       -4.09300
O         -0.93800        2.35100        4.98500
O         -1.68600        4.38100        5.50500
H         -2.67900        3.13900        4.28000
H         -1.61800        4.87200        2.93100
H          0.01700        4.48300        3.58500
H         -0.32600        3.71400        1.29000
H         -1.79500        2.79000        1.79300
H          0.20800        1.43100        1.34500
H         -0.29800        1.20000        3.09400
H          1.39800        2.90300        3.70100
H          1.92600        2.95600        1.97500
H          2.04400        0.58500        3.93000
H          3.37100        1.54700        3.26500
H          3.23100       -0.58700        2.16800
H          1.57200       -0.25100        1.53100
H          2.51700        1.81200        0.40000
H          4.16600        1.28700        1.00900
H          3.80800        0.74500       -1.30900
H          4.08400       -0.71600       -0.30200
H          1.50900       -1.04800       -0.34400
H          1.48400        0.35400       -1.43000
H          3.17000       -2.14300       -2.04200
H          2.87800       -0.73900       -3.08100
H          1.61100       -2.62600       -3.73000
H          0.57100       -1.22000       -3.32600
H          1.09500       -3.74100       -1.61100
H          0.12100       -2.36800       -1.04200
H         -1.18700       -4.19600       -1.76000
H         -1.53600       -2.74800       -2.73800
H          0.34500       -5.11900       -3.34300
H          0.15900       -3.79700       -4.50200
H         -1.09500       -5.69300       -5.24000
H         -1.86100       -5.89700       -3.67600
H         -2.28800       -3.69300       -5.81000
H         -3.32200       -5.09000       -5.46800
H         -3.60200       -3.77200       -3.04300
H         -4.59000       -3.57200       -4.47800
H         -3.31800       -2.40300       -4.18700
H         -1.49000        1.63800        5.39100
H         -2.43900        4.15000        6.10500
