58
5bvs_EIC_conf3.pdb
C         -1.69700       -0.34400        4.75800
C         -2.09100        0.41800        3.51200
C         -1.77800       -0.44300        2.25500
C         -2.15300        0.28300        1.03000
C         -2.03700       -0.39000       -0.25000
C         -0.78200       -0.94100       -0.80300
C         -0.14400       -2.08300       -0.11900
C          1.04500       -2.66500       -0.76300
C          2.29700       -1.98700       -1.02800
C          2.39800       -0.85600       -1.96300
C          3.86700       -0.42500       -2.02300
C          4.09300        0.74700       -2.87900
C          3.79100        2.12200       -2.51200
C          2.52500        2.61800       -1.94000
C          2.30300        2.28600       -0.50100
C          0.93800        2.79700       -0.01700
C          0.80700        4.28600       -0.14200
C         -0.58300        4.65300        0.38300
O         -1.95100        0.37100        5.91200
O         -2.28400       -1.60600        4.78000
H         -0.58200       -0.50500        4.72800
H         -1.53300        1.35600        3.45000
H         -3.16300        0.62700        3.54900
H         -0.65800       -0.48600        2.31800
H         -2.17300       -1.44900        2.35700
H         -3.18300        0.74000        1.18100
H         -1.51400        1.22400        0.98900
H         -2.44300        0.31500       -1.04700
H         -2.80000       -1.24700       -0.31900
H         -0.06200       -0.06500       -0.90200
H         -0.98200       -1.24600       -1.85500
H         -0.95600       -2.91200       -0.09600
H          0.05100       -1.93900        0.97800
H          1.31800       -3.60700       -0.13800
H          0.70800       -3.14900       -1.76600
H          2.79800       -1.67400       -0.04500
H          3.03800       -2.79200       -1.36900
H          1.76600       -0.04100       -1.87600
H          2.15000       -1.31400       -3.00000
H          4.40500       -1.33700       -2.40100
H          4.23100       -0.25300       -0.96800
H          3.63600        0.53200       -3.94000
H          5.21600        0.76400       -3.20700
H          4.65900        2.49000       -1.82600
H          4.03100        2.76900       -3.46100
H          1.64100        2.24100       -2.53500
H          2.48300        3.74800       -2.02200
H          3.09900        2.89400        0.10200
H          2.41800        1.25800       -0.20300
H          0.79800        2.52700        1.04900
H          0.16600        2.29600       -0.63100
H          1.52500        4.78900        0.51500
H          0.89800        4.63300       -1.19100
H         -1.23700        3.75800        0.39200
H         -1.06100        5.36500       -0.35100
H         -0.54100        5.14500        1.36800
H         -2.62700        1.09100        5.71000
H         -2.76800       -1.70100        5.65900
