58
5bvs_EIC_conf30.pdb
C          2.14000        2.18100       -3.60000
C          2.00400        0.81300       -4.22600
C          1.13700       -0.11900       -3.38000
C         -0.24000        0.43900       -3.21700
C         -1.09300       -0.50400       -2.37000
C         -2.49200        0.04100       -2.20700
C         -3.37400       -0.83700       -1.39500
C         -2.97000       -1.10100        0.00500
C         -2.86000        0.08700        0.90100
C         -2.45300       -0.43200        2.28600
C         -2.31100        0.59700        3.30000
C         -1.41700        1.72900        3.29300
C          0.02900        1.73500        3.29100
C          0.93600        1.28000        2.23200
C          0.91900       -0.10500        1.75100
C          2.04600       -0.37600        0.73300
C          1.92900       -1.82400        0.30700
C          2.98500       -2.20700       -0.69200
O          2.94600        2.93000       -4.45900
O          2.78600        2.07300       -2.36900
H          1.17800        2.68300       -3.45000
H          1.45600        0.94000       -5.18300
H          2.99200        0.38900       -4.40300
H          1.67400       -0.31600       -2.45700
H          1.12800       -1.08700       -3.94100
H         -0.72800        0.51600       -4.18900
H         -0.16600        1.38300       -2.64200
H         -0.57900       -0.68000       -1.40900
H         -1.08400       -1.46400       -2.92400
H         -2.49900        1.10500       -1.92700
H         -2.92400        0.03300       -3.25200
H         -4.44300       -0.50400       -1.45000
H         -3.38100       -1.84200       -1.91500
H         -3.78500       -1.74400        0.45100
H         -2.06000       -1.72100        0.09000
H         -3.86200        0.54600        1.03200
H         -2.09700        0.78600        0.56300
H         -3.40600       -1.01900        2.58200
H         -1.71700       -1.24700        2.24300
H         -2.14100        0.04200        4.28500
H         -3.37200        1.00500        3.49400
H         -1.73600        2.52600        2.51400
H         -1.71500        2.34000        4.24500
H          0.41600        2.82500        3.51600
H          0.40700        1.28000        4.32000
H          0.77900        1.98500        1.34300
H          2.02300        1.52900        2.48900
H         -0.01500       -0.23400        1.13800
H          0.98300       -0.82900        2.55700
H          3.02300       -0.12600        1.13700
H          1.77400        0.24400       -0.14200
H          0.95500       -2.03700       -0.15400
H          1.99100       -2.51500        1.18800
H          2.57200       -2.40300       -1.68200
H          3.67700       -1.32100       -0.79000
H          3.54900       -3.11300       -0.38900
H          3.10400        3.79300       -4.00100
H          3.31000        2.91700       -2.21000
