58
5bvs_EIC_conf5.pdb
C         -2.63900        3.29000       -0.59400
C         -2.94700        1.82300       -0.86000
C         -1.66800        1.01100       -0.90400
C         -1.92000       -0.43700       -1.16200
C         -2.77900       -1.09800       -0.12600
C         -2.21000       -1.05600        1.26400
C         -0.85300       -1.75900        1.32300
C         -0.27400       -1.72400        2.70500
C          1.06300       -2.40000        2.83500
C          2.06600       -1.70600        1.90400
C          3.39500       -2.35000        2.01000
C          4.54700       -1.83800        1.28600
C          4.65700       -1.70700       -0.15900
C          3.71700       -0.74500       -0.80600
C          3.95300       -0.68100       -2.31900
C          3.04800        0.22800       -3.03200
C          3.02900        1.66800       -2.71200
C          2.64500        2.09500       -1.34800
O         -1.82500        3.79400       -1.60400
O         -3.83500        3.97600       -0.63100
H         -2.17400        3.44800        0.37800
H         -3.59200        1.44600       -0.06700
H         -3.46700        1.80100       -1.83100
H         -1.11300        1.39100       -1.80800
H         -1.00200        1.22900       -0.06000
H         -0.96100       -0.92600       -1.32800
H         -2.47500       -0.50200       -2.12200
H         -3.79000       -0.68500       -0.13900
H         -2.85400       -2.17000       -0.40500
H         -2.14800       -0.07000        1.72100
H         -2.89100       -1.67500        1.89400
H         -0.95100       -2.82900        1.04400
H         -0.24300       -1.26900        0.56600
H         -0.13800       -0.68400        3.08900
H         -0.98600       -2.19900        3.40900
H          0.92700       -3.46100        2.51900
H          1.36500       -2.38900        3.88100
H          2.11100       -0.66900        2.18200
H          1.64900       -1.95000        0.90200
H          3.66500       -2.26800        3.12400
H          3.28600       -3.48800        1.92400
H          4.79300       -0.80200        1.73400
H          5.45500       -2.43800        1.68200
H          4.71600       -2.68100       -0.71600
H          5.69300       -1.27100       -0.36800
H          2.66100       -0.88900       -0.69400
H          4.00400        0.26100       -0.36500
H          3.73000       -1.72400       -2.66800
H          5.03100       -0.54500       -2.54000
H          2.01200       -0.20300       -2.97300
H          3.26500        0.16200       -4.14900
H          2.30800        2.15000       -3.44900
H          4.00000        2.18000       -2.97500
H          1.96900        3.01200       -1.45700
H          1.98200        1.39000       -0.79200
H          3.47800        2.50400       -0.72900
H         -1.31900        4.59300       -1.31700
H         -4.47900        3.70400        0.05700
