58
5bvs_EIC_conf38.pdb
C         -3.52600       -2.43000        0.71900
C         -2.60100       -1.23500        0.94200
C         -3.33100       -0.30400        1.85600
C         -2.57900        0.90300        2.18900
C         -2.17600        1.90900        1.21600
C         -1.31200        1.65900        0.07500
C          0.05800        1.12500        0.30000
C          0.96600        1.95000        1.11700
C          1.31200        3.30900        0.72800
C          1.97000        3.71000       -0.50700
C          3.32100        3.23200       -0.86200
C          3.55300        1.80400       -1.15000
C          2.78300        1.30300       -2.35700
C          3.08200       -0.16900       -2.52100
C          2.35700       -0.75400       -3.70000
C          2.67200       -2.20600       -3.84000
C          2.28100       -3.01700       -2.64500
C          2.64600       -4.47900       -2.90300
O         -4.68900       -1.92100        0.14400
O         -3.81400       -2.92400        2.00400
H         -3.01800       -3.19500        0.11800
H         -1.73300       -1.63700        1.55200
H         -2.22200       -0.83900        0.01600
H         -3.50100       -0.92000        2.80200
H         -4.38400       -0.12200        1.51800
H         -1.71200        0.59400        2.88400
H         -3.22200        1.46500        2.96200
H         -1.84000        2.81400        1.84000
H         -3.15300        2.34200        0.79500
H         -1.85000        1.21500       -0.77300
H         -1.08900        2.71900       -0.36800
H          0.56000        0.75100       -0.59800
H         -0.10200        0.16800        0.90300
H          1.88100        1.37500        1.36000
H          0.51700        2.06400        2.18200
H          0.45500        4.04700        0.87800
H          2.01300        3.68100        1.57100
H          2.08200        4.85300       -0.42900
H          1.28700        3.65800       -1.41800
H          4.05500        3.52700       -0.05100
H          3.74700        3.80100       -1.75600
H          3.44700        1.18700       -0.25500
H          4.66000        1.72000       -1.43500
H          1.73500        1.57700       -2.39400
H          3.23600        1.83300       -3.26300
H          2.84300       -0.71400       -1.58100
H          4.17000       -0.29900       -2.66400
H          2.73100       -0.21800       -4.60000
H          1.28400       -0.55100       -3.62200
H          3.73100       -2.38700       -4.07900
H          2.10400       -2.64300       -4.70900
H          1.18500       -2.98000       -2.53400
H          2.84200       -2.73800       -1.72400
H          2.34600       -4.79300       -3.91700
H          3.71000       -4.65500       -2.72500
H          2.04500       -5.08800       -2.17300
H         -5.01700       -2.52800       -0.55600
H         -4.75600       -2.75600        2.25200
