58
5bvs_EIC_conf0.pdb
C         -2.58900       -2.82300       -3.23800
C         -1.61000       -2.11500       -4.11600
C         -1.61100       -0.61700       -3.89700
C         -1.24300       -0.36700       -2.45100
C         -1.21200        1.10000       -2.12200
C         -0.23400        1.88000       -2.92700
C          1.18600        1.46700       -2.80000
C          1.71100        1.58000       -1.35500
C          3.11400        1.14700       -1.36900
C          3.95900        1.15600       -0.18000
C          3.71200        0.33300        1.01100
C          2.41100        0.59000        1.73000
C          2.33200       -0.25900        2.98500
C          1.13200        0.00800        3.78900
C         -0.23700       -0.19300        3.34600
C         -0.85100        0.54700        2.23300
C         -2.34800        0.09500        2.11000
C         -3.01200        0.82900        0.99500
O         -3.89800       -2.38200       -3.46500
O         -2.59400       -4.17900       -3.63000
H         -2.35800       -2.78400       -2.16400
H         -0.58900       -2.50000       -3.87900
H         -1.83900       -2.36600       -5.17300
H         -2.65800       -0.27800       -4.11500
H         -0.88800       -0.13900       -4.59200
H         -0.33600       -0.91800       -2.22600
H         -2.09300       -0.79400       -1.84400
H         -1.02700        1.25800       -1.04200
H         -2.22100        1.50900       -2.33700
H         -0.49300        1.91500       -3.98500
H         -0.29400        2.94000       -2.55300
H          1.42000        0.46500       -3.19300
H          1.79700        2.19100       -3.38000
H          0.97400        1.07700       -0.76400
H          1.69200        2.66200       -1.04600
H          3.63600        1.83400       -2.13200
H          3.24900        0.14100       -1.87900
H          4.22700        2.23900        0.13100
H          5.01500        0.83100       -0.53900
H          3.70300       -0.75100        0.65700
H          4.57800        0.35500        1.72100
H          2.31400        1.62200        1.98500
H          1.63800        0.13600        1.06900
H          3.28500       -0.16000        3.57800
H          2.25100       -1.34000        2.63200
H          1.28000       -0.52300        4.79900
H          1.17100        1.11200        4.17000
H         -0.90100        0.03600        4.26200
H         -0.47700       -1.29600        3.19000
H         -0.49100        0.37800        1.21400
H         -0.95200        1.64200        2.39700
H         -2.88100        0.32500        3.05400
H         -2.38400       -0.98300        1.93600
H         -2.51400        1.79800        0.76300
H         -4.07200        1.12300        1.25000
H         -3.11800        0.23100        0.06600
H         -4.40000       -2.49800       -2.61300
H         -2.01000       -4.72300       -3.02400
