58
5bvs_EIC_conf49.pdb
C         -3.40100        2.51500       -3.37200
C         -2.47000        2.02200       -2.32500
C         -1.06800        2.63100       -2.51700
C         -0.44700        2.30400       -3.81300
C          0.91900        2.78900       -4.13000
C          2.09200        2.26100       -3.41900
C          2.09700        2.39800       -1.96000
C          3.42400        1.94100       -1.32900
C          3.72300        0.52100       -1.62200
C          2.70100       -0.47100       -1.12700
C          2.52100       -0.41400        0.35100
C          1.48400       -1.42700        0.84200
C          0.15200       -1.22600        0.27400
C         -0.87100       -2.20900        0.68600
C         -1.38000       -2.35800        2.04400
C         -0.43700       -2.69100        3.12600
C         -1.21600       -2.92800        4.46200
C         -2.18400       -4.05700        4.30200
O         -4.69600        1.97300       -3.20300
O         -3.49500        3.89800       -3.29700
H         -3.03400        2.15400       -4.36900
H         -2.80000        2.23700       -1.29400
H         -2.40200        0.90100       -2.40000
H         -1.32800        3.76500       -2.50500
H         -0.49100        2.52800       -1.60300
H         -0.49400        1.20000       -4.04800
H         -1.16100        2.72100       -4.61300
H          0.91500        3.94000       -4.12200
H          1.08900        2.61500       -5.26400
H          2.99300        2.83000       -3.85000
H          2.20200        1.18300       -3.75700
H          1.36800        1.62100       -1.56800
H          1.75900        3.36800       -1.62100
H          3.42200        2.24000       -0.27300
H          4.19200        2.55800       -1.84000
H          3.88700        0.42900       -2.71700
H          4.68800        0.22000       -1.16600
H          1.79400       -0.34800       -1.73500
H          3.04500       -1.52300       -1.35300
H          2.24800        0.58900        0.73500
H          3.47700       -0.76500        0.80100
H          1.51100       -1.31900        1.92600
H          1.90600       -2.43800        0.62700
H          0.14900       -1.10800       -0.84600
H         -0.26700       -0.20700        0.59800
H         -0.51400       -3.28000        0.38300
H         -1.79100       -2.13600       -0.00000
H         -2.03500       -1.46800        2.33400
H         -2.13100       -3.23300        2.00300
H          0.18100       -3.53800        2.89800
H          0.10500       -1.73800        3.39800
H         -1.70900       -1.97400        4.71400
H         -0.42300       -3.16000        5.20100
H         -3.13800       -3.70800        3.86100
H         -1.68500       -4.85500        3.71100
H         -2.44700       -4.41200        5.32200
H         -5.10600        2.29100       -2.37500
H         -3.52800        4.14900       -2.35000
