58
5bvs_EIC_conf42.pdb
C         -2.56800        3.24800       -2.05800
C         -2.56200        1.74200       -2.23800
C         -3.86400        1.17400       -1.71900
C         -3.91300       -0.32600       -1.87300
C         -2.81000       -1.02800       -1.12800
C         -2.83700       -0.77500        0.34400
C         -1.68000       -1.53200        1.00500
C         -1.72100       -1.26300        2.51000
C         -0.60900       -1.99600        3.16800
C          0.77500       -1.57400        2.63600
C          1.01800       -0.13700        2.86100
C          2.26000        0.49800        2.39300
C          3.56500        0.06600        2.91900
C          4.00300       -1.34000        2.66600
C          4.04400       -1.64800        1.19100
C          4.47100       -3.03600        0.87600
C          5.82700       -3.40900        1.35500
C          6.93400       -2.56600        0.79700
O         -3.63500        3.82900       -2.76600
O         -1.40200        3.81300       -2.54100
H         -2.64600        3.49600       -0.98100
H         -1.68800        1.36100       -1.67400
H         -2.41500        1.53800       -3.30800
H         -4.68600        1.59400       -2.33500
H         -3.96500        1.42800       -0.65200
H         -4.90900       -0.69300       -1.59700
H         -3.78200       -0.53100       -2.95500
H         -1.85500       -0.72700       -1.60500
H         -2.91400       -2.10900       -1.31500
H         -3.79400       -1.10300        0.75400
H         -2.72400        0.31300        0.51800
H         -0.73600       -1.15400        0.57100
H         -1.75800       -2.60800        0.77400
H         -2.68000       -1.68000        2.93500
H         -1.77900       -0.18700        2.68200
H         -0.68900       -3.06800        2.86500
H         -0.58900       -1.88000        4.25800
H          1.46600       -2.19600        3.28200
H          0.83400       -1.89000        1.59100
H          0.10000        0.42100        2.46800
H          0.92300        0.09700        3.98100
H          2.31800        0.49000        1.24100
H          2.16100        1.61100        2.59500
H          3.56200        0.28200        4.03800
H          4.34500        0.76300        2.47900
H          3.62300       -2.09500        3.32200
H          5.14300       -1.29100        2.94200
H          3.03600       -1.47800        0.76700
H          4.69900       -0.91600        0.67400
H          4.38100       -3.18100       -0.21900
H          3.76100       -3.77500        1.32400
H          5.84900       -3.51400        2.46300
H          6.01900       -4.45500        0.97600
H          6.59400       -1.72900        0.16200
H          7.67100       -3.13400        0.18600
H          7.50500       -2.18500        1.68800
H         -3.33900        4.61200       -3.31700
H         -0.58100        3.36500       -2.22500
