58
5bvs_EIC_conf47.pdb
C          2.26600        1.68200        1.49000
C          2.15800        2.96900        2.19200
C          0.96600        3.37600        2.95200
C          0.43900        2.71900        4.11300
C         -0.19300        1.39100        4.23700
C         -1.44200        1.10800        3.54000
C         -1.67200        1.03100        2.12300
C         -1.02900       -0.06500        1.30800
C         -1.47600       -1.41600        1.78800
C         -0.90300       -2.62500        1.18800
C         -0.99400       -2.92700       -0.24200
C         -0.31500       -2.06300       -1.23500
C         -0.58400       -2.62600       -2.64100
C          0.06900       -1.82200       -3.71000
C         -0.40500       -0.38900       -3.75000
C          0.35100        0.27100       -4.88900
C          0.00500        1.71400       -5.08000
C          0.85900        2.19600       -6.25900
O          3.56900        1.65800        0.85000
O          2.29700        0.59800        2.32400
H          1.53500        1.63900        0.66100
H          3.02400        2.98500        2.95100
H          2.44900        3.82700        1.46400
H          1.17700        4.48500        3.25400
H          0.17000        3.58600        2.15000
H          1.31200        2.70300        4.89900
H         -0.23100        3.49500        4.70400
H         -0.45400        1.35900        5.38400
H          0.57500        0.59600        4.22600
H         -2.18100        1.90700        3.93000
H         -1.91700        0.19100        4.05800
H         -1.47800        1.97000        1.55300
H         -2.78900        0.89400        1.95800
H         -0.01100        0.01800        1.03200
H         -1.59500        0.05200        0.31300
H         -2.61800       -1.41000        1.71400
H         -1.33800       -1.38300        2.91100
H          0.17000       -2.80200        1.52800
H         -1.42300       -3.50400        1.72300
H         -0.59900       -3.99400       -0.37700
H         -2.09500       -3.08900       -0.52600
H          0.81200       -2.20900       -1.12600
H         -0.46600       -1.00800       -1.20000
H         -1.67500       -2.64200       -2.85400
H         -0.16200       -3.64300       -2.62800
H         -0.21700       -2.26500       -4.69900
H          1.18700       -1.88000       -3.67300
H         -1.47500       -0.30900       -4.00600
H         -0.26800        0.15700       -2.81200
H          0.07900       -0.30000       -5.80900
H          1.44700        0.19500       -4.76700
H          0.37900        2.30400       -4.20100
H         -1.05700        1.92100       -5.22600
H          1.86500        1.72500       -6.09600
H          0.92800        3.28600       -6.29200
H          0.42900        1.72400       -7.16200
H          3.53000        0.85700        0.28200
H          2.79300       -0.17800        1.99400
