58
5bvs_EIC_conf36.pdb
C         -1.79300        0.17500       -3.61000
C         -1.96100       -1.22500       -4.12200
C         -2.72800       -2.12800       -3.20300
C         -2.08300       -2.30600       -1.83800
C         -0.71600       -2.89100       -1.93000
C         -0.01900       -3.10200       -0.63000
C          0.17500       -1.77900        0.14300
C          0.88400       -2.04500        1.42500
C          1.15100       -0.86000        2.31300
C          1.99400        0.14700        1.60600
C          2.38100        1.35400        2.31900
C          1.46000        2.41100        2.77000
C          0.72900        3.21200        1.79700
C         -0.31700        2.79700        0.88400
C         -1.65000        2.39700        1.38700
C         -1.82600        1.26000        2.29100
C         -3.33700        1.17700        2.62100
C         -3.60900        0.03500        3.54500
O         -1.12100        0.26100       -2.41800
O         -1.18100        1.00500       -4.55900
H         -2.81600        0.63600       -3.47300
H         -2.57500       -1.16700       -5.06700
H         -1.00100       -1.67500       -4.45500
H         -3.72800       -1.66900       -3.03100
H         -2.87100       -3.13700       -3.62000
H         -2.71800       -3.07800       -1.31200
H         -2.15000       -1.41600       -1.22200
H         -0.07200       -2.26300       -2.58800
H         -0.77100       -3.89900       -2.43000
H         -0.60100       -3.80000       -0.01100
H          0.98300       -3.52100       -0.84400
H          0.73000       -1.07800       -0.50300
H         -0.83500       -1.35600        0.27600
H          1.84200       -2.58400        1.20100
H          0.29700       -2.80400        2.02400
H          0.29500       -0.48100        2.85600
H          1.87800       -1.30300        3.10600
H          2.95200       -0.40100        1.33500
H          1.52300        0.31200        0.61300
H          3.19200        1.87600        1.69900
H          3.02900        0.99600        3.20700
H          0.82900        2.08700        3.66000
H          2.14600        3.16700        3.30600
H          0.27300        4.10400        2.39100
H          1.52800        3.77700        1.19500
H         -0.53100        3.72500        0.23600
H          0.03200        2.08500        0.07100
H         -2.14000        3.34500        1.80000
H         -2.34200        2.19200        0.49600
H         -1.32800        1.24200        3.24800
H         -1.57500        0.28400        1.76900
H         -3.68300        2.14500        3.01100
H         -3.86200        0.98100        1.66300
H         -4.54000        0.27300        4.10200
H         -2.82700       -0.16200        4.27900
H         -3.75900       -0.89600        2.94600
H         -1.46000        0.99600       -1.86400
H         -1.49700        1.92600       -4.47200
