58
5bvs_EIC_conf46.pdb
C          2.03000       -3.96400        4.20800
C          0.64100       -3.60700        3.79500
C          0.66400       -2.76500        2.55800
C          1.31900       -3.52800        1.43300
C          1.32600       -2.65700        0.15200
C          1.98000       -3.44800       -0.92500
C          2.12500       -2.77700       -2.24300
C          0.96600       -2.36300       -3.00900
C         -0.03400       -1.39900       -2.55200
C          0.42900       -0.04800       -2.17800
C         -0.69200        0.83800       -1.70700
C         -1.72500        1.02500       -2.74600
C         -2.87000        1.91500       -2.35200
C         -2.48200        3.30200       -1.99400
C         -1.81300        3.95600       -3.15600
C         -1.38300        5.37300       -2.88300
C         -0.40500        5.48900       -1.74700
C         -0.06500        6.96300       -1.59100
O          1.90700       -4.74400        5.37600
O          2.77400       -2.83300        4.51600
H          2.54100       -4.59200        3.45900
H          0.04800       -4.54700        3.64700
H          0.09400       -3.08300        4.62600
H          1.21500       -1.80600        2.72900
H         -0.36300       -2.43400        2.25600
H          2.37800       -3.75200        1.65800
H          0.80000       -4.46200        1.21900
H          1.87600       -1.75600        0.43600
H          0.27500       -2.47600       -0.08200
H          1.48800       -4.45800       -1.04900
H          3.02100       -3.73900       -0.57700
H          2.89500       -1.97000       -2.07700
H          2.74200       -3.52200       -2.86800
H          1.31800       -2.08100       -4.06300
H          0.38300       -3.32000       -3.25800
H         -0.68700       -1.22200       -3.51300
H         -0.80800       -1.77300       -1.87200
H          0.81300        0.47200       -3.10700
H          1.30800       -0.02500       -1.50400
H         -0.21100        1.77100       -1.35400
H         -1.15800        0.40900       -0.77000
H         -2.15100        0.00800       -2.99500
H         -1.31400        1.40600       -3.69900
H         -3.39200        1.44000       -1.48100
H         -3.63200        1.94900       -3.15800
H         -1.95400        3.40900       -1.04200
H         -3.44400        3.87100       -1.83900
H         -2.51700        3.99600       -4.01300
H         -0.91600        3.39900       -3.52600
H         -2.25200        6.02300       -2.65000
H         -0.87900        5.79800       -3.77400
H          0.54400        4.96500       -1.93700
H         -0.82100        5.16800       -0.77900
H         -0.98000        7.59500       -1.59900
H          0.57900        7.15000       -0.71100
H          0.49300        7.23100       -2.53500
H          1.50400       -4.21700        6.10400
H          2.16200       -2.06400        4.60900
