58
5bvs_EIC_conf19.pdb
C          3.06400        2.71500       -0.74400
C          3.02800        2.98400        0.72900
C          3.50700        1.85900        1.57300
C          2.64200        0.62500        1.34800
C          3.11600       -0.51000        2.20600
C          2.31200       -1.75700        2.06200
C          0.85700       -1.55400        2.41300
C          0.16700       -2.89800        2.30000
C         -1.27600       -2.84000        2.63200
C         -2.16100       -2.02400        1.77800
C         -2.21400       -2.58600        0.36700
C         -3.09400       -1.78600       -0.53400
C         -2.66100       -0.39300       -0.77900
C         -1.29700       -0.32000       -1.48400
C         -1.37700       -0.99600       -2.82300
C         -0.16500       -1.00900       -3.68000
C          1.05600       -1.69300       -3.20600
C          1.73100       -1.19300       -1.98100
O          4.37400        2.44300       -1.12800
O          2.65100        3.81900       -1.49100
H          2.42500        1.87300       -1.02000
H          1.98700        3.27400        0.99400
H          3.64100        3.88100        0.97400
H          4.55500        1.58700        1.36500
H          3.44700        2.06700        2.65300
H          2.67800        0.33400        0.28800
H          1.60800        0.92300        1.61300
H          3.11200       -0.23600        3.29800
H          4.19800       -0.71000        1.96700
H          2.43200       -2.25600        1.08300
H          2.68600       -2.50900        2.81000
H          0.36500       -0.76000        1.81900
H          0.85200       -1.19300        3.46300
H          0.34600       -3.37500        1.32200
H          0.65600       -3.55500        3.04800
H         -1.38000       -2.55800        3.71200
H         -1.64200       -3.91000        2.61600
H         -1.93400       -0.96500        1.71600
H         -3.19900       -2.10400        2.17200
H         -2.67300       -3.59800        0.46400
H         -1.18500       -2.72000        0.04300
H         -4.10100       -1.75800       -0.04600
H         -3.25400       -2.33400       -1.47900
H         -2.55800        0.18300        0.15400
H         -3.36900        0.13900       -1.43500
H         -1.13300        0.75900       -1.66400
H         -0.51500       -0.68600       -0.82800
H         -2.26900       -0.58800       -3.41000
H         -1.66700       -2.08600       -2.70400
H          0.15700        0.05700       -3.94700
H         -0.44100       -1.51100       -4.66200
H          1.80500       -1.84900       -4.03700
H          0.73800       -2.76200       -2.95700
H          2.86400       -1.26800       -2.09600
H          1.51000       -1.75600       -1.05800
H          1.47700       -0.13000       -1.82300
H          4.79600        3.23700       -1.50600
H          1.66100        3.80400       -1.66700
