54
1ln1_DLP_model_32_chainB.pdb
C          3.13300        7.34100       -5.03100
C          4.11800        8.07300       -4.20600
C          3.97100        7.80800       -2.77000
C          4.88400        8.61400       -1.95900
C          5.09700        8.05600       -0.62900
C          6.19300        8.72500        0.02200
C          7.19500        8.19200        0.62900
C          7.36300        6.88400        1.10600
C          8.41000        6.25300        0.73100
C          9.15200        5.34600        0.73300
C         10.04800        4.46700        0.97000
C         10.11600        3.39800       -0.03300
C          8.85500        2.67900       -0.16600
C          8.69200        1.98300       -1.44100
C          8.56500        2.86100       -2.57700
C          7.43900        2.58000       -3.43400
C          7.19100        1.16800       -3.69800
C          5.73600        0.92400       -3.65700
O          5.00900        1.37600       -4.47300
O          5.30000        0.16900       -2.65200
C          3.92000       -0.09100       -2.52300
C          3.64100       -0.46500       -1.11000
C          2.20500       -0.87600       -0.92400
O          2.19700       -2.22900       -0.74100
P          0.96300       -2.92100       -0.09100
O         -0.27200       -2.40100       -0.67600
O          1.16000       -4.36500       -0.19200
O          0.97600       -2.53500        1.43100
C          2.11200       -2.70300        2.16000
C          1.77900       -2.73600        3.59600
N          2.31700       -1.63600        4.38200
C          3.78300       -1.68800        4.38500
C          1.90000       -0.33900        3.80800
C          1.83000       -1.72700        5.72700
O          3.91400        0.59400       -0.23900
C          4.84000        0.37800        0.74400
O          5.46100       -0.63000        0.76500
C          5.03500        1.43800        1.78300
C          5.09300        2.79300        1.22700
C          3.73000        3.31900        1.10900
C          3.64100        4.67200        0.52800
C          2.22000        5.01500        0.20700
C          1.98500        5.33500       -1.18700
C          0.72000        4.84900       -1.74000
C          0.89400        3.83100       -2.48100
C          0.94300        3.18500       -3.44900
C          0.96900        1.98400       -3.89800
C          1.10200        1.79600       -5.29100
C          0.72000        0.76300       -5.93300
C          0.02400       -0.40100       -5.41800
C         -0.62100       -1.15700       -6.49200
C         -1.57300       -2.15600       -5.96600
C         -2.57700       -2.54800       -6.95400
C         -3.63800       -3.43000       -6.38900
