136
1ln1_DLP_model_8_chainB_pH74.pdb
C         -8.41500        2.88000        7.12400
C         -7.68500        3.28700        8.33700
C         -6.22800        3.07600        8.23600
C         -5.55700        3.35500        9.51100
C         -4.19400        3.86100        9.31100
C         -3.62200        4.31800       10.57300
C         -2.83400        5.34900       10.69100
C         -2.30400        6.17800        9.64300
C         -2.62500        7.53400        9.92400
C         -2.04000        8.61100        9.47400
C         -1.15500        8.75300        8.35200
C         -1.52600        9.97000        7.65400
C         -1.89300        9.80300        6.27000
C         -2.92600        8.79400        5.99600
C         -4.21100        9.35500        5.65100
C         -5.00200        8.39400        4.89200
C         -4.87700        8.63600        3.43500
C         -4.79000        7.36400        2.68800
O         -5.69200        6.59900        2.66500
O         -3.65100        7.15600        2.02000
C         -3.47400        5.94900        1.28500
C         -2.03300        5.55100        1.30100
C         -1.79700        4.32900        0.44800
O         -1.24400        4.74500       -0.73700
P         -0.33500        3.78000       -1.56800
O         -1.00000        2.49000       -1.76000
O          0.06600        4.47900       -2.78300
O          0.96300        3.52700       -0.71200
C          1.74300        4.58200       -0.34900
C          3.14200        4.12600       -0.17000
N          3.58200        4.01500        1.20700
C          3.47600        5.31000        1.88900
C          2.73700        3.03700        1.93800
C          4.93900        3.56000        1.24900
O         -1.58700        5.27900        2.59900
C         -0.53300        6.00800        3.08100
O         -0.12600        6.93900        2.46400
C          0.09700        5.59300        4.37400
C         -0.86000        5.29000        5.42000
C         -1.17100        3.85400        5.39900
C         -1.81100        3.39900        6.63900
C         -2.48400        2.07800        6.61100
C         -2.88100        1.50200        5.33500
C         -4.32900        1.54700        5.04600
C         -4.52900        1.44700        3.66200
C         -5.41700        2.21200        3.02700
C         -5.44400        2.21300        1.62600
C         -6.50200        3.07500        1.14400
C         -6.81700        3.21100       -0.09800
C         -6.05500        2.65700       -1.23300
C         -6.95100        2.36500       -2.38100
C         -6.17100        1.94900       -3.58100
C         -6.93600        1.10500       -4.48500
C         -6.14000        0.64000       -5.65800
H         -9.46100        3.05800        7.26100
H         -8.25100        1.83900        6.94200
H         -8.06300        3.44800        6.28800
H         -8.05500        2.71700        9.16400
H         -7.84600        4.33700        8.46800
H         -5.83300        3.72800        7.48500
H         -6.05300        2.05200        7.98000
H         -5.51100        2.45200       10.08300
H         -6.11900        4.10700       10.02500
H         -4.22100        4.67900        8.62100
H         -3.58700        3.06900        8.92500
H         -3.85700        3.79000       11.42800
H         -2.55700        5.60100       11.65300
H         -1.24100        6.06200        9.59600
H         -2.72800        5.89100        8.70300
H         -3.64700        7.63700        9.62500
H         -2.27800        7.57400       10.93500
H         -2.84500        9.28500        9.26600
H         -1.31800        8.73000       10.25400
H         -0.14300        8.82100        8.69200
H         -1.23300        7.90700        7.70100
H         -2.36000       10.40300        8.16600
H         -0.65200       10.58700        7.65400
H         -2.25100       10.74500        5.91000
H         -1.01000        9.45400        5.77700
H         -2.59400        8.18400        5.18200
H         -3.06200        8.23400        6.89800
H         -4.73500        9.61200        6.54800
H         -4.05700       10.22700        5.05000
H         -4.65800        7.40500        5.11300
H         -6.03000        8.50400        5.16900
H         -5.73300        9.18100        3.09700
H         -3.98100        9.19400        3.26000
H         -4.06100        5.17300        1.73000
H         -3.78600        6.10300        0.27300
H         -1.48400        6.38000        0.90600
H         -1.12700        3.66000        0.94700
H         -2.71800        3.81400        0.27000
H          1.38200        4.99300        0.57100
H          1.70800        5.33000       -1.11300
H          3.78400        4.82300       -0.66800
H          3.18700        3.13800       -0.57800
H          4.07800        6.03200        1.37900
H          3.81700        5.21100        2.89800
H          2.45500        5.63100        1.88700
H          2.79900        2.08300        1.45800
H          1.72100        3.37200        1.93600
H          3.08200        2.95100        2.94700
H          5.56400        4.25300        0.72600
H          5.00700        2.59800        0.78500
H          5.26000        3.48800        2.26700
H          0.72700        6.38900        4.71300
H          0.64300        4.69300        4.18000
H         -1.75600        5.85100        5.25700
H         -0.44400        5.55100        6.37100
H         -0.26100        3.30800        5.26200
H         -1.85800        3.68200        4.59700
H         -2.54600        4.12900        6.90800
H         -1.00800        3.28400        7.33700
H         -1.81800        1.38000        7.07400
H         -3.41600        2.26100        7.10500
H         -2.37200        2.03500        4.55900
H         -2.62100        0.46500        5.38400
H         -4.81700        0.73100        5.53700
H         -4.73700        2.47000        5.40100
H         -3.97500        0.76400        3.12100
H         -6.07800        2.79700        3.56200
H         -4.50500        2.56600        1.25500
H         -5.62300        1.21600        1.28100
H         -7.03900        3.61600        1.84000
H         -7.67000        3.75000       -0.31600
H         -5.31500        3.36700       -1.53800
H         -5.59100        1.74500       -0.92100
H         -7.62100        1.57600       -2.10900
H         -7.49400        3.25500       -2.62200
H         -5.86400        2.82700       -4.11000
H         -5.33300        1.37800       -3.23900
H         -7.27900        0.24800       -3.94400
H         -7.74900        1.69100       -4.86000
H         -5.31500        0.04900       -5.31800
H         -5.77300        1.48700       -6.19800
H         -6.76100        0.05000       -6.29900
