54
1ln1_DLP_model_46_chainB.pdb
C          7.84000        1.75100        5.16600
C          7.36700        2.89500        5.96300
C          6.50000        3.78800        5.20600
C          6.28700        5.06000        5.89700
C          4.94200        5.55400        5.69400
C          4.73700        6.88900        6.25800
C          3.69900        7.14500        7.00200
C          2.91300        6.07100        7.51400
C          1.86100        6.49400        8.34900
C          1.15300        5.48900        8.81900
C          0.10800        5.51800        9.69000
C         -0.55800        4.22300        9.79900
C          0.04500        3.24000        8.91900
C         -0.39000        1.87600        9.14400
C          0.67500        0.97000        9.41900
C          1.41400        0.53000        8.25300
C          1.19600       -0.89500        7.96900
C          1.39600       -1.14300        6.54200
O          2.47400       -1.34000        6.10000
O          0.29500       -1.14200        5.80200
C          0.38800       -1.39900        4.42300
C         -0.69200       -0.65000        3.71800
C         -0.73600       -1.01300        2.26700
O         -1.83500       -1.79900        2.08800
P         -2.47600       -1.96900        0.68700
O         -1.43700       -2.16800       -0.32600
O         -3.49200       -3.01300        0.78200
O         -3.21000       -0.61900        0.36500
C         -4.11000       -0.11200        1.23700
C         -4.97600        0.86200        0.55400
N         -4.78500        2.24800        0.93200
C         -5.12100        2.44600        2.33300
C         -3.39000        2.65900        0.75100
C         -5.62300        3.07200        0.12100
O         -0.50300        0.72800        3.80900
C         -1.45900        1.47300        4.43100
O         -2.33500        0.94300        5.02900
C         -1.36600        2.96200        4.31000
C         -0.06000        3.49700        4.69600
C          0.89100        3.26800        3.62200
C          1.95100        4.28000        3.49200
C          3.27800        3.66600        3.19500
C          3.36100        2.96000        1.93000
C          4.44200        1.96800        1.92700
C          3.89700        0.73300        1.68100
C          4.24600       -0.34300        2.34400
C          3.68200       -1.51800        1.88700
C          4.03500       -2.64100        2.71800
C          3.74600       -3.85300        2.38600
C          3.03000       -4.23100        1.16600
C          3.31000       -5.64100        0.83000
C          2.51900       -6.08200       -0.33300
C          3.12600       -7.22000       -1.01000
C          2.34100       -7.63800       -2.20600
