54
1ln1_DLP_model_30_chainB.pdb
C          6.59000      -11.03000        0.43700
C          7.15700      -11.25400        1.79200
C          6.98800      -10.07400        2.67300
C          7.64000      -10.29800        3.98400
C          6.93500       -9.54500        5.03300
C          7.46600       -9.88200        6.37600
C          6.63600      -10.03700        7.39400
C          5.24000      -10.35500        7.15300
C          4.42400      -10.02900        8.29100
C          3.25200      -10.72500        8.35200
C          2.08300      -10.14500        8.94600
C          0.90000      -10.57400        8.18500
C          0.68900       -9.66700        7.04700
C          0.03300      -10.36100        5.92200
C          1.04000      -10.81700        4.97100
C          0.48400      -11.07100        3.63900
C         -0.58100      -10.12500        3.27600
C         -0.09700       -9.06400        2.35200
O          0.77400       -9.23800        1.56800
O         -0.74900       -7.90300        2.45900
C         -0.28600       -6.78100        1.73900
C         -0.26000       -5.61700        2.68100
C         -0.02900       -4.30900        1.93900
O         -1.27300       -3.73100        1.74300
P         -1.38500       -2.20700        1.40500
O         -0.48200       -1.86500        0.29700
O         -2.80200       -1.89300        1.19300
O         -0.90100       -1.41800        2.68300
C         -1.52000       -1.63800        3.89000
C         -1.21400       -0.50600        4.79700
N         -0.12900       -0.76000        5.75400
C         -0.52400       -1.82100        6.68900
C          1.10200       -1.18700        5.05200
C          0.16400        0.44500        6.48100
O          0.75600       -5.78600        3.63100
C          0.40000       -5.64700        4.94500
O         -0.64900       -5.16000        5.24100
C          1.35100       -6.14300        5.99600
C          2.70200       -5.56500        5.88800
C          3.45200       -6.32100        4.86000
C          4.92500       -6.04000        4.90700
C          5.59300       -6.63300        3.69600
C          5.67100       -5.65900        2.57000
C          5.68900       -6.32500        1.26100
C          4.57500       -5.85700        0.52600
C          3.79400       -6.78500       -0.06400
C          2.74700       -6.27600       -0.85600
C          2.11200       -7.37900       -1.57500
C          1.16400       -7.19000       -2.43700
C          0.56500       -5.85600       -2.73100
C          0.10200       -5.80800       -4.14100
C         -0.50500       -4.47800       -4.45500
C         -0.58400       -4.26300       -5.91100
C         -1.12300       -2.90300       -6.24900
