138
1ln1_DLP_model_43_chainB_pH74.pdb
C         10.79300        0.84800        7.53100
C         11.59600        2.03900        7.19100
C         11.29300        2.57100        5.84900
C         12.31900        3.53700        5.43200
C         11.80500        4.52700        4.49200
C         12.75000        5.64800        4.41400
C         12.36500        6.90000        4.50300
C         10.98800        7.30300        4.43800
C         10.81700        8.66700        4.79700
C          9.53100        9.08100        4.87200
C          9.10700       10.24000        5.49500
C          7.87000       10.06700        6.27600
C          7.11300        8.87200        5.86400
C          6.17600        8.38700        6.88500
C          6.84300        7.69500        7.97300
C          6.54000        6.26500        7.98900
C          5.10800        5.96300        8.17500
C          4.77900        4.72500        7.44800
O          5.21200        3.67800        7.76200
O          3.93800        4.87500        6.42200
C          3.61000        3.77100        5.62200
C          3.26900        4.25700        4.24200
C          2.68500        3.14800        3.42900
O          1.36200        3.42400        3.27900
P          0.54400        2.78600        2.11200
O          0.86300        1.36600        2.00500
O         -0.85900        3.11900        2.33100
O          1.00400        3.48400        0.78800
C          1.13600        4.83200        0.70900
C          1.01400        5.26500       -0.70000
N          2.10600        6.08600       -1.19700
C          2.18800        7.34100       -0.44300
C          3.40200        5.36200       -1.04500
C          1.89900        6.36900       -2.58500
O          4.39400        4.73700        3.56100
C          4.46600        6.06500        3.26100
O          3.70500        6.83700        3.74000
C          5.52800        6.50600        2.29300
C          6.88300        6.08200        2.69500
C          7.08900        4.67500        2.29400
C          8.49000        4.21100        2.38000
C          8.62100        3.00100        3.24900
C          8.30600        1.72800        2.58600
C          8.10000        0.61200        3.54100
C          6.72000        0.45700        3.75200
C          6.23000        0.44300        4.99900
C          4.99500       -0.17800        5.14600
C          4.46000       -0.00200        6.49400
C          3.38400       -0.63000        6.86700
C          2.68100       -1.58900        6.00300
C          1.54200       -2.21700        6.69700
C          0.52400       -2.65200        5.72800
C         -0.15200       -3.87900        6.13100
C         -1.25600       -4.25300        5.18500
H         11.05500        0.50900        8.51100
H         10.98800        0.07200        6.82100
H          9.75300        1.10000        7.50700
H         11.39700        2.80200        7.91400
H         12.62500        1.74500        7.19500
H         11.26500        1.76300        5.14800
H         10.34500        3.06600        5.88000
H         12.68500        4.04500        6.30000
H         13.09600        2.99300        4.93800
H         11.69600        4.08100        3.52500
H         10.85100        4.88100        4.82500
H         13.75300        5.44400        4.28500
H         13.08500        7.62900        4.62500
H         10.41800        6.69500        5.10900
H         10.65500        7.18200        3.42900
H         11.31700        9.26800        4.06600
H         11.22300        8.77100        5.78200
H          9.00300        8.28700        5.35700
H          9.34900        9.33400        3.84800
H          8.93300       10.98400        4.74500
H          9.87600       10.52800        6.18100
H          7.25300       10.93000        6.13900
H          8.14500        9.94300        7.30300
H          7.80900        8.09000        5.64500
H          6.53000        9.14900        5.01100
H          5.48500        7.71300        6.42300
H          5.68000        9.23900        7.30000
H          6.52500        8.12400        8.90000
H          7.89800        7.80500        7.83300
H          7.08700        5.81300        8.79000
H          6.81900        5.87600        7.03200
H          4.90200        5.83300        9.21700
H          4.51700        6.77100        7.79800
H          4.44400        3.10300        5.57200
H          2.77300        3.25400        6.04200
H          2.56500        5.05300        4.36500
H          3.16200        3.10200        2.47200
H          2.82700        2.20300        3.91100
H          0.37000        5.29900        1.29200
H          2.09700        5.11600        1.08400
H          0.95600        4.38800       -1.31100
H          0.13900        5.88000       -0.74500
H          2.99600        7.93200       -0.82100
H          2.35800        7.12500        0.59100
H          1.27000        7.88100       -0.54900
H          3.36200        4.44200       -1.58900
H          3.57700        5.15700       -0.00900
H          4.19600        5.96800       -1.42700
H          1.84000        5.45100       -3.13100
H          2.71600        6.95300       -2.95600
H          0.98700        6.91500       -2.70500
H          5.31000        6.08700        1.33300
H          5.51900        7.57600        2.27200
H          6.98600        6.17100        3.75600
H          7.61100        6.70300        2.21700
H          6.49200        4.05500        2.93000
H          6.81000        4.60900        1.26300
H          9.09100        4.99700        2.78700
H          8.81500        3.95000        1.39500
H          7.95800        3.11600        4.08100
H          9.65100        2.94500        3.53400
H          9.11500        1.47400        1.93400
H          7.39000        1.86400        2.05100
H          8.58400        0.83600        4.46800
H          8.51500       -0.29100        3.14500
H          6.44100       -0.47200        3.30000
H          6.30600        1.35100        3.33500
H          6.13100        1.45700        5.32700
H          6.92000       -0.13100        5.58100
H          5.10700       -1.22400        4.95100
H          4.31200        0.26900        4.45400
H          4.94000        0.62700        7.15700
H          3.00800       -0.44700        7.81000
H          2.31900       -1.07500        5.13800
H          3.37100       -2.36000        5.73100
H          1.89000       -3.06600        7.24700
H          1.10400       -1.50100        7.36100
H         -0.20600       -1.87600        5.62800
H          1.02400       -2.84900        4.80200
H          0.56300       -4.67400        6.15800
H         -0.58600       -3.71400        7.09500
H         -0.84800       -4.42400        4.21100
H         -1.97000       -3.45800        5.13800
H         -1.73600       -5.14400        5.53200
