54
1ln1_DLP_model_42_chainB.pdb
C         -9.97200        4.40400        1.90600
C         -8.93300        3.72900        2.74400
C         -9.47000        3.23600        3.99800
C         -8.45300        2.74200        4.91800
C         -8.97800        2.50500        6.26100
C         -8.01600        1.94600        7.18500
C         -7.64700        2.62300        8.29100
C         -6.41600        3.34200        8.45300
C         -6.68900        4.71700        8.73800
C         -5.82600        5.59500        9.18300
C         -4.38200        5.48400        9.20700
C         -3.81900        6.80600        8.90200
C         -3.04000        6.81700        7.66600
C         -3.86900        6.72500        6.45100
C         -4.43600        8.00200        6.04500
C         -4.79500        7.94700        4.63000
C         -3.66600        8.43400        3.79900
C         -3.34600        7.43600        2.76300
O         -4.09400        7.21000        1.87200
O         -2.15900        6.83200        2.87100
C         -1.74100        5.92900        1.86400
C         -0.82700        4.90600        2.45900
C         -0.30700        3.97100        1.40200
O          0.92900        4.42000        1.03400
P          1.94800        3.45200        0.36300
O          1.30800        2.74100       -0.74300
O          3.13300        4.23200        0.02300
O          2.36700        2.37800        1.43400
C          2.81000        2.76700        2.66100
C          3.54300        1.65700        3.31100
N          2.89800        1.07200        4.47200
C          2.73300        2.07300        5.52400
C          1.56000        0.55800        4.12900
C          3.68600       -0.01400        4.97500
O         -1.47900        4.14300        3.43500
C         -0.95300        4.13400        4.69500
O         -0.16700        4.96200        5.01500
C         -1.38300        3.05100        5.64900
C         -2.83400        2.88000        5.71500
C         -3.28600        2.17500        4.51000
C         -4.59700        1.49400        4.65500
C         -5.45400        1.71500        3.45600
C         -5.10500        0.88500        2.27700
C         -4.65700        1.66400        1.12500
C         -5.53200        2.73100        0.82500
C         -5.26100        3.75400        0.11000
C         -4.17200        3.89500       -0.77300
C         -4.22900        5.22400       -1.32900
C         -3.57000        5.67100       -2.33100
C         -2.54900        4.98100       -3.11400
C         -2.31000        5.72000       -4.37100
C         -1.06600        5.27600       -5.03800
C         -1.31300        4.79100       -6.40300
C         -0.03800        4.54500       -7.15400
