134
1ln1_DLP_model_47_chainB_pH74.pdb
C          3.00600       -2.97400       -5.03200
C          4.33000       -2.80900       -4.38000
C          4.28700       -3.04700       -2.92000
C          5.61400       -3.02600       -2.26900
C          5.77700       -1.90300       -1.33200
C          7.16600       -1.41600       -1.37700
C          7.59700       -0.28400       -0.88600
C          6.89500        0.60700        0.00400
C          7.05700        1.96300       -0.36500
C          6.94100        2.94100        0.56800
C          6.96800        4.31300        0.24200
C          7.43800        5.12900        1.38000
C          6.57600        4.95200        2.56500
C          7.28400        5.11200        3.84900
C          6.37000        5.45700        4.94400
C          6.65400        4.86500        6.28700
C          6.99400        3.42800        6.27600
C          5.84300        2.49200        6.25600
O          4.70700        2.81800        6.37800
O          6.17600        1.17700        6.10800
C          5.33900        0.32900        5.36600
C          5.65100        0.53400        3.93800
C          4.71200       -0.14800        2.95300
O          3.87600       -1.09000        3.46000
P          2.42100       -1.28500        2.88000
O          2.29100       -0.66900        1.55300
O          2.10200       -2.70600        2.97300
O          1.45000       -0.49200        3.82400
C          1.58700       -0.52700        5.17100
C          0.43500        0.11800        5.84300
N          0.74400        1.31700        6.61900
C          1.73700        1.00900        7.65900
C          1.29400        2.36700        5.73600
C         -0.45700        1.81800        7.24000
O          6.98700        0.30900        3.63300
C          7.73200       -0.77400        4.01700
O          7.27600       -1.69900        4.61600
C          9.18600       -0.71200        3.62800
C         10.07600       -0.86100        4.80000
C         10.14000        0.38900        5.53000
C         10.36100        0.19900        6.96400
C         10.47800        1.51700        7.57000
C          9.87600        1.64800        8.87100
C          9.60400        3.06000        9.14900
C         10.81600        3.84900        9.02100
C         10.98300        4.99400        8.44300
C          9.98700        5.73600        7.77600
C         10.55800        6.99000        7.29000
C         10.75900        7.29600        6.04100
C         10.41300        6.45200        4.88800
C         11.24500        6.77200        3.70800
C         10.99300        5.80600        2.61800
C         12.05900        5.80400        1.61200
C         11.78200        4.84300        0.47300
H          3.10000       -2.79000       -6.08200
H          2.31100       -2.27900       -4.60900
H          2.65300       -3.97200       -4.87500
H          4.67400       -1.81100       -4.55300
H          4.99000       -3.53700       -4.80500
H          3.84300       -4.00500       -2.74800
H          3.71900       -2.24700       -2.49200
H          6.36500       -2.94900       -3.02800
H          5.70800       -3.93000       -1.70400
H          5.54700       -2.23100       -0.34000
H          5.11500       -1.11000       -1.61100
H          7.86200       -2.02300       -1.83800
H          8.54700        0.00500       -1.16700
H          7.27200        0.47200        0.99600
H          5.85200        0.37300       -0.05000
H          7.26400        2.20900       -1.34600
H          6.82800        2.67000        1.55700
H          5.98100        4.62600       -0.02700
H          7.64600        4.45200       -0.57400
H          7.43000        6.16000        1.09500
H          8.42800        4.81200        1.63400
H          6.15600        3.96800        2.53200
H          5.83100        5.71900        2.52400
H          8.01100        5.89100        3.74800
H          7.74700        4.17800        4.08800
H          5.38900        5.14200        4.65500
H          6.48900        6.51200        5.07800
H          5.78500        4.99600        6.89800
H          7.51700        5.37400        6.66200
H          7.58700        3.23800        5.40600
H          7.50300        3.24300        7.19900
H          5.52000       -0.69000        5.63700
H          4.31100        0.55000        5.56200
H          5.46400        1.57800        3.79800
H          4.10900        0.61100        2.50100
H          5.35000       -0.67400        2.27400
H          2.48400       -0.01200        5.44400
H          1.63100       -1.55000        5.48100
H         -0.00200       -0.59900        6.50600
H         -0.21800        0.43900        5.05800
H          2.63000        0.63700        7.20100
H          1.34100        0.26800        8.32200
H          1.96300        1.89800        8.21100
H          0.58100        2.60100        4.97300
H          2.19800        2.01500        5.28300
H          1.50200        3.24500        6.31200
H         -1.18200        2.04300        6.48500
H         -0.22900        2.70600        7.79200
H         -0.85100        1.07700        7.90300
H          9.38000        0.23200        3.16400
H          9.38500       -1.52000        2.95500
H         11.05700       -1.13000        4.46900
H          9.69000       -1.62500        5.44200
H          9.21700        0.91200        5.39300
H         10.97200        0.94300        5.14700
H         11.26100       -0.35700        7.12400
H          9.54900       -0.34400        7.40000
H         10.01200        2.22500        6.91700
H         11.52500        1.68900        7.70800
H         10.54400        1.26200        9.61200
H          8.95800        1.09900        8.89400
H          9.22600        3.15600       10.14500
H          8.88400        3.41800        8.44300
H         11.66100        3.44000        9.45000
H         11.93100        5.40100        8.47300
H          9.61400        5.16900        6.94800
H          9.18600        5.94700        8.45300
H         10.82500        7.69300        7.99700
H         11.19900        8.20900        5.84300
H         10.56400        5.42600        5.15100
H          9.39000        6.63500        4.63500
H         11.00700        7.75800        3.36700
H         12.27600        6.71700        3.98700
H         10.91700        4.82500        3.03900
H         10.08600        6.09600        2.13000
H         12.15500        6.79200        1.21200
H         12.96000        5.48500        2.09400
H         10.88400        5.13600       -0.03000
H         11.66600        3.85300        0.86200
H         12.60000        4.86200       -0.21600
