54
1ln1_DLP_model_21_chainB.pdb
C         -8.62200       -8.19400       -1.28500
C         -9.59700       -7.78200       -0.25100
C         -9.01900       -6.78200        0.67500
C         -9.97000       -6.49400        1.77100
C         -9.75200       -5.12700        2.25400
C        -10.74800       -4.78600        3.29200
C        -11.30200       -3.60300        3.27500
C        -11.26500       -2.82800        2.06100
C        -11.48600       -1.44900        2.35700
C        -11.81700       -0.72000        1.25300
C        -11.70800        0.69400        1.30200
C        -11.77000        1.22900       -0.06500
C        -10.46100        1.05800       -0.72100
C        -10.62500        0.22000       -1.90600
C         -9.34400        0.00900       -2.56400
C         -9.41300       -1.20900       -3.32900
C         -8.40900       -1.17200       -4.39800
C         -7.12300       -1.68100       -3.89200
O         -6.87100       -2.84000       -3.88000
O         -6.26100       -0.75900       -3.48800
C         -4.96900       -1.17400       -3.11200
C         -4.44000       -0.21600       -2.08600
C         -2.97900       -0.45900       -1.85600
O         -2.29600        0.49200       -2.56000
P         -0.83100        0.85300       -2.14900
O         -0.01800       -0.36100       -2.08500
O         -0.36400        1.89100       -3.06300
O         -0.88000        1.46900       -0.70100
C         -1.69600        2.52500       -0.44100
C         -1.18200        3.26200        0.73900
N         -2.13000        3.40000        1.83400
C         -2.52000        2.06900        2.35700
C         -3.35000        4.08700        1.37500
C         -1.53400        4.15800        2.89400
O         -5.09600       -0.36800       -0.85400
C         -5.73900        0.72300       -0.33300
O         -5.94200        1.68100       -1.00500
C         -6.15900        0.66600        1.11500
C         -7.02500       -0.49100        1.40300
C         -6.17600       -1.69200        1.45700
C         -6.74200       -2.77600        2.30000
C         -6.54100       -4.10300        1.63600
C         -5.14000       -4.53300        1.62900
C         -4.91700       -5.55900        0.58800
C         -4.07900       -4.98700       -0.39300
C         -4.37900       -5.27400       -1.67800
C         -3.46100       -4.75400       -2.60700
C         -3.86400       -5.15200       -3.95700
C         -3.07900       -4.98700       -4.97300
C         -1.73900       -4.36700       -4.87200
C         -0.96200       -4.71200       -6.09000
C          0.40700       -4.14900       -6.01500
C          1.40800       -5.15000       -6.40100
C          2.78700       -4.55700       -6.47700
