54
1ln1_DLP_model_20_chainB.pdb
C         10.59000       -3.44500       -4.77000
C         10.90300       -4.26600       -3.57900
C          9.76800       -5.06700       -3.11400
C         10.18800       -6.08800       -2.12500
C          9.04900       -6.92700       -1.74700
C          9.47700       -8.19400       -1.11400
C          8.69500       -9.26100       -1.18100
C          7.55600       -9.24200       -2.05900
C          6.77300      -10.44600       -2.00800
C          5.97700      -10.57400       -3.07300
C          4.78300      -11.30300       -3.17300
C          4.00900      -10.79800       -4.32400
C          3.47400       -9.44800       -4.05500
C          3.49200       -8.58100       -5.25700
C          4.51400       -7.52700       -5.15100
C          4.67300       -6.80000       -6.41600
C          3.51200       -5.94000       -6.73200
C          3.58800       -4.63700       -6.02000
O          4.50300       -3.88700       -6.15500
O          2.54300       -4.36100       -5.24400
C          2.52800       -3.16400       -4.49800
C          1.74100       -3.40900       -3.25400
C          1.43400       -2.10100       -2.55600
O          0.06100       -2.03500       -2.41000
P         -0.61400       -0.93100       -1.53900
O          0.27400        0.21200       -1.35700
O         -1.92100       -0.63300       -2.13400
O         -0.85800       -1.57400       -0.13000
C         -1.00000       -2.90600       -0.00100
C         -1.60200       -3.23600        1.31500
N         -1.05600       -4.42700        1.93900
C          0.41300       -4.30400        2.09300
C         -1.34900       -5.62400        1.10300
C         -1.65900       -4.60300        3.23400
O          2.44700       -4.24000       -2.36200
C          1.86300       -5.42100       -1.96800
O          0.70200       -5.60400       -2.15600
C          2.72700       -6.46200       -1.31600
C          3.66700       -5.92700       -0.31300
C          4.92600       -5.52000       -0.97200
C          5.84800       -4.81900       -0.02400
C          6.91700       -4.08600       -0.76700
C          7.20100       -2.73400       -0.22300
C          6.53400       -1.66100       -0.95200
C          6.89000       -1.67000       -2.31200
C          6.09800       -1.40800       -3.30700
C          5.34900       -0.24500       -3.47500
C          5.31000        0.05200       -4.90200
C          4.57800        0.96000       -5.44500
C          3.52700        1.72700       -4.76400
C          3.30800        3.00300       -5.47300
C          2.21800        3.77800       -4.84700
C          2.27500        5.20000       -5.24100
C          1.10400        5.97700       -4.72500
