54
1ln1_DLP_model_1_chainB.pdb
C          8.52900       -0.42400        8.32300
C          9.28500        0.63100        7.60500
C          8.45700        1.76500        7.18800
C          9.26700        2.88000        6.67200
C          8.41300        4.04500        6.38100
C          9.22400        5.21500        6.06200
C          8.73000        6.43500        6.04700
C          7.32500        6.79500        6.16300
C          7.04100        7.23200        7.49300
C          5.94600        7.86400        7.86200
C          4.82600        8.30800        7.05000
C          3.56900        8.11500        7.80500
C          2.91700        6.86600        7.38900
C          2.54200        6.01000        8.53300
C          2.97600        4.63400        8.29000
C          2.56900        3.71000        9.35400
C          1.36900        2.94300        8.98400
C          1.66000        1.90000        7.97000
O          2.56900        1.14600        8.07000
O          0.81800        1.87400        6.95700
C          1.01100        0.95400        5.91000
C          0.60300        1.60900        4.62600
C          0.42300        0.58800        3.53300
O         -0.92500        0.54100        3.23100
P         -1.41300        0.05600        1.82400
O         -0.67400       -1.14100        1.41300
O         -2.86800       -0.08200        1.87600
O         -1.07000        1.21600        0.81600
C         -1.51500        2.48400        1.05500
C         -1.63200        3.22900       -0.22700
N         -0.61000        4.25900       -0.44600
C         -0.71100        5.31200        0.57800
C          0.73900        3.66000       -0.37900
C         -0.79300        4.84300       -1.74700
O          1.57000        2.53500        4.20100
C          1.20100        3.85300        4.08400
O          0.14300        4.21300        4.48200
C          2.16800        4.80200        3.42200
C          3.51800        4.77400        4.02300
C          4.23600        3.58900        3.53200
C          5.71100        3.78700        3.42200
C          6.47400        2.59700        3.92800
C          6.25600        1.35200        3.16600
C          6.36800        0.13700        4.01000
C          5.17200       -0.57900        3.94500
C          4.75600       -1.32600        4.98400
C          3.54400       -2.02000        4.84900
C          3.15200       -2.63500        6.10700
C          2.16900       -3.46000        6.22500
C          1.29000       -3.89000        5.11500
C          0.61900       -5.16700        5.46500
C         -0.09800       -5.75000        4.28500
C         -0.18000       -7.20300        4.35900
C         -0.90100       -7.78000        3.17900
