54
1ln1_DLP_model_0_chainB.pdb
C          5.80900        5.99500        7.59500
C          5.42100        6.29200        6.17500
C          5.47400        7.72200        5.88300
C          5.07700        8.05100        4.51000
C          4.65400        9.45100        4.40600
C          4.19200        9.77200        3.03600
C          3.13600       10.52700        2.84600
C          2.26200       10.95300        3.92300
C          0.93400       11.12500        3.43400
C          0.00600       11.57000        4.34800
C         -1.35900       11.48300        3.98400
C         -2.14100       11.26300        5.21300
C         -2.75700        9.92300        5.24300
C         -1.80400        8.85000        5.63500
C         -1.69000        8.72300        7.09200
C         -1.00200        7.48000        7.42400
C         -1.98300        6.36200        7.58000
C         -1.42800        5.11000        7.00600
O         -0.36000        4.70900        7.30600
O         -2.22600        4.46300        6.14100
C         -1.72700        3.33100        5.43900
C         -2.24700        3.39800        4.02900
C         -2.01200        2.08900        3.29600
O         -3.23500        1.44000        3.22800
P         -3.46500        0.28800        2.19100
O         -2.35600       -0.66500        2.24700
O         -4.80100       -0.26400        2.42800
O         -3.47000        0.94400        0.75500
C         -4.34600        1.95700        0.46900
C         -4.49800        2.08400       -0.99900
N         -3.91900        3.29700       -1.58400
C         -4.48500        4.49700       -0.95800
C         -2.45600        3.30900       -1.37900
C         -4.18900        3.32400       -2.99400
O         -1.61900        4.43200        3.32000
C         -2.41800        5.41700        2.79600
O         -3.59700        5.26800        2.75400
C         -1.76700        6.68200        2.30400
C         -0.53000        6.46500        1.52900
C          0.61000        6.29300        2.46800
C          1.92500        6.21600        1.74100
C          3.00400        5.69100        2.65200
C          3.28000        4.24500        2.43900
C          3.86300        3.59600        3.62900
C          3.04900        2.51400        3.99900
C          2.63500        2.42900        5.28600
C          1.89200        1.27000        5.58600
C          1.46600        1.27300        6.98900
C          0.76400        0.29600        7.47800
C          0.26000       -0.83500        6.64800
C         -0.00300       -2.02200        7.49700
C         -0.47400       -3.18200        6.65700
C         -0.13000       -4.47300        7.26400
C         -0.59400       -5.62200        6.40600
