136
1ln1_DLP_model_36_chainB_pH74.pdb
C          4.94400       -9.31100       -4.18000
C          4.11200       -9.45300       -5.39800
C          2.70000       -9.12800       -5.13100
C          1.87000       -9.42700       -6.30700
C          0.54900       -8.80000       -6.20300
C         -0.27900       -9.23500       -7.34100
C         -0.50500       -8.48800       -8.37600
C          0.06200       -7.18500       -8.56700
C         -0.64400       -6.51100       -9.61800
C          0.09700       -5.69200      -10.38100
C         -0.34100       -4.37300      -10.70000
C          0.83100       -3.54200      -10.98900
C          1.40100       -3.05400       -9.73900
C          2.79400       -3.49100       -9.61800
C          3.22300       -3.41600       -8.23600
C          4.61300       -3.73900       -8.13600
C          5.33100       -2.61100       -7.55600
C          5.15600       -2.59400       -6.09000
O          5.59200       -3.44800       -5.39400
O          4.50200       -1.54900       -5.60800
C          4.33400       -1.45700       -4.20900
C          2.99700       -0.84800       -3.93700
C          2.85100       -0.54700       -2.46000
O          2.82800        0.82400       -2.34200
P          2.32200        1.49000       -1.01800
O          2.82700        0.75600        0.13900
O          2.65900        2.91200       -1.07500
O          0.76400        1.37100       -1.01400
C          0.06400        1.69400       -2.12300
C         -1.31600        2.06400       -1.74300
N         -2.35300        1.37300       -2.48500
C         -2.22800       -0.09200       -2.31500
C         -2.23600        1.68500       -3.91400
C         -3.64000        1.79200       -2.01300
O          1.96200       -1.71500       -4.31500
C          1.07200       -1.25700       -5.25400
O          1.04900       -0.10900       -5.54600
C          0.15500       -2.23900       -5.90600
C         -0.46300       -3.18200       -4.97200
C          0.45900       -4.30800       -4.74800
C         -0.23900       -5.46000       -4.10300
C          0.76100       -6.42200       -3.53700
C          1.12800       -6.10000       -2.14100
C          2.50900       -6.42500       -1.85100
C          3.15800       -5.24000       -1.51400
C          4.48300       -5.19300       -1.66500
C          5.08400       -4.00500       -1.25300
C          6.50600       -4.06500       -1.54400
C          7.34000       -3.19000       -1.11800
C          6.99000       -2.03500       -0.27100
C          8.18600       -1.59400        0.46700
C          7.80900       -0.72900        1.61500
C          8.91600       -0.62900        2.58000
C          8.57600        0.30100        3.70700
H          5.96000       -9.55400       -4.41200
H          4.58200       -9.97400       -3.42200
H          4.89000       -8.30200       -3.82700
H          4.48400       -8.79100       -6.15200
H          4.16500      -10.47100       -5.72300
H          2.35600       -9.70900       -4.30100
H          2.62200       -8.08400       -4.90900
H          2.36200       -9.05900       -7.18300
H          1.73600      -10.48700       -6.36400
H          0.08300       -9.09600       -5.28600
H          0.65200       -7.73500       -6.21700
H         -0.69800      -10.17800       -7.31300
H         -1.13300       -8.85400       -9.10900
H         -0.02300       -6.62200       -7.66100
H          1.09500       -7.27800       -8.83100
H         -1.07500       -7.25500      -10.25500
H         -1.36500       -5.88700       -9.13300
H          1.03900       -5.58600       -9.88400
H          0.07300       -6.17900      -11.33300
H         -0.98000       -4.40400      -11.55800
H         -0.88400       -3.96100       -9.87500
H          0.53800       -2.71100      -11.59600
H          1.56100       -4.12500      -11.51100
H          0.83600       -3.44100       -8.91700
H          1.36700       -1.98500       -9.73200
H          3.41600       -2.85900      -10.21600
H          2.87300       -4.50400       -9.95400
H          2.65500       -4.10900       -7.65100
H          3.06700       -2.42100       -7.87400
H          5.00200       -3.94700       -9.11100
H          4.73600       -4.60000       -7.51300
H          4.95000       -1.70000       -7.96800
H          6.37200       -2.70700       -7.78200
H          5.10400       -0.84200       -3.79200
H          4.39400       -2.42900       -3.76500
H          2.93100        0.05400       -4.50800
H          3.67900       -0.95100       -1.91700
H          1.96000       -0.98500       -2.06200
H          0.53300        2.52100       -2.61300
H          0.03900        0.85500       -2.78700
H         -1.44600        1.84400       -0.70400
H         -1.42400        3.10400       -1.96900
H         -3.00100       -0.58300       -2.86900
H         -2.32000       -0.34000       -1.27800
H         -1.27300       -0.41300       -2.67500
H         -3.00400        1.17200       -4.45500
H         -1.27700        1.37000       -4.27000
H         -2.34200        2.74000       -4.05900
H         -4.40400        1.28200       -2.56100
H         -3.74500        2.84800       -2.15300
H         -3.73100        1.55900       -0.97300
H          0.71600       -2.79700       -6.62700
H         -0.63900       -1.67600       -6.35100
H         -1.38100       -3.54600       -5.38400
H         -0.66600       -2.69100       -4.04300
H          1.25700       -3.98400       -4.11300
H          0.83700       -4.62900       -5.69600
H         -0.83900       -5.96300       -4.83300
H         -0.85700       -5.09300       -3.31000
H          1.64500       -6.39300       -4.14000
H          0.31500       -7.39500       -3.54000
H          0.49700       -6.65800       -1.48100
H          1.00200       -5.04700       -2.00200
H          2.97000       -6.86100       -2.71200
H          2.56900       -7.12800       -1.04700
H          2.63200       -4.42600       -1.16000
H          5.02300       -5.97900       -2.05800
H          4.93900       -3.87600       -0.20100
H          4.64400       -3.18000       -1.77300
H          6.86000       -4.84600       -2.11900
H          8.33000       -3.30200       -1.38800
H          6.22600       -2.31900        0.42300
H          6.63200       -1.23500       -0.88500
H          8.82200       -1.04300       -0.19300
H          8.69600       -2.45700        0.84100
H          6.95400       -1.14800        2.10400
H          7.58500        0.25100        1.24700
H          9.78600       -0.26200        2.07600
H          9.09600       -1.60200        2.98800
H          8.39200        1.28100        3.31800
H          9.39300        0.33900        4.39700
H          7.70100       -0.05300        4.21000
