54
1ln1_DLP_model_44_chainB.pdb
C         -5.93600        7.76600        5.57000
C         -7.34300        7.33100        5.79300
C         -7.80800        6.42400        4.71600
C         -9.23300        6.06900        4.91100
C         -9.49600        4.72500        4.37000
C        -10.93700        4.40300        4.48500
C        -11.34400        3.31900        5.10900
C        -10.49300        2.61000        6.04600
C        -10.97100        1.25500        6.22300
C        -10.59700        0.67600        7.41800
C        -10.43800       -0.73900        7.48500
C         -9.41500       -1.04800        8.50600
C         -8.06800       -0.99400        7.90600
C         -7.41000        0.26700        8.28400
C         -5.99700        0.05400        8.53400
C         -5.37600        1.33100        8.78400
C         -3.92100        1.14100        8.80600
C         -3.35200        1.48500        7.48500
O         -3.10600        2.60900        7.20000
O         -3.11200        0.47000        6.66000
C         -2.36100        0.73000        5.48700
C         -2.67200       -0.33100        4.48100
C         -1.75100       -0.21800        3.28500
O         -0.98800       -1.36500        3.27500
P         -0.23800       -1.79900        1.97600
O          0.32000       -0.63500        1.28900
O          0.72800       -2.83600        2.34300
O         -1.31100       -2.44900        1.03200
C         -2.13700       -3.41200        1.52400
C         -2.67000       -4.21500        0.39700
N         -4.11600       -4.12600        0.23100
C         -4.80100       -4.53500        1.46700
C         -4.51100       -2.74000       -0.09200
C         -4.52100       -4.98900       -0.84300
O         -3.99300       -0.21600        4.02000
C         -4.82100       -1.29600        4.21300
O         -4.46800       -2.20000        4.89200
C         -6.16400       -1.30400        3.53400
C         -6.89600       -0.03800        3.70900
C         -6.42400        0.89500        2.67500
C         -7.30700        2.08200        2.51800
C         -6.55900        3.33900        2.86700
C         -5.91800        3.98200        1.69000
C         -4.93800        5.01700        2.13500
C         -3.65900        4.41700        2.27300
C         -2.97000        4.65400        3.42200
C         -1.60100        4.28400        3.37800
C         -1.00100        4.35400        4.71900
C          0.28700        4.21800        4.90400
C          1.25500        3.99200        3.78800
C          2.63700        3.88800        4.33300
C          3.54500        3.24700        3.33600
C          4.80600        3.99300        3.17500
C          5.70100        3.35300        2.13900
