54
1ln1_DLP_model_49_chainB.pdb
C         -6.13400        2.04900        5.44900
C         -4.91400        1.52300        6.10700
C         -4.56800        0.16600        5.62100
C         -3.25900       -0.31300        6.10500
C         -2.84100       -1.55200        5.41600
C         -3.64100       -2.69000        5.88100
C         -3.69400       -3.82800        5.28400
C         -2.96800       -4.19100        4.11200
C         -3.64900       -5.18800        3.39100
C         -3.14000       -5.60200        2.20800
C         -3.64700       -6.70000        1.52600
C         -2.88800       -6.94900        0.29900
C         -1.64300       -7.69800        0.54700
C         -0.76400       -7.73900       -0.65800
C          0.37700       -8.68400       -0.53700
C          1.70500       -8.07000       -0.83400
C          2.48200       -7.79900        0.42900
C          2.61200       -6.35400        0.62800
O          3.53400       -5.71800        0.22800
O          1.61500       -5.81100        1.31300
C          1.37400       -4.46200        1.15900
C          0.51700       -4.00300        2.28700
C          0.04300       -2.60100        2.02500
O          0.85400       -1.65100        2.69400
P          0.90000       -0.16200        2.23700
O         -0.45200        0.31600        1.90500
O          1.61600        0.61300        3.23700
O          1.74300       -0.12400        0.92200
C          3.00800       -0.61700        0.90400
C          3.69100       -0.22400       -0.35400
N          4.00300       -1.32900       -1.25400
C          4.86500       -2.30800       -0.58100
C          2.76800       -2.00800       -1.67900
C          4.66600       -0.84400       -2.43100
O          1.26400       -4.07700        3.45600
C          0.88900       -4.94600        4.41100
O         -0.15700       -5.51000        4.38300
C          1.87300       -5.14800        5.50900
C          1.50400       -6.25300        6.42700
C          1.77900       -7.55500        5.83000
C          3.16900       -7.91800        5.95400
C          3.52500       -8.84900        4.89300
C          4.88400       -8.66700        4.46200
C          5.02000       -9.13200        3.10400
C          5.02100      -10.57400        3.06200
C          4.24400      -11.36100        2.38600
C          2.94200      -11.06100        1.91300
C          2.36100      -12.24800        1.29900
C          1.10000      -12.43900        1.05700
C          0.03600      -11.43500        1.14200
C         -1.24200      -11.99900        1.60500
C         -2.17000      -10.93600        1.99100
C         -3.09500      -11.32800        3.04200
C         -3.91200      -10.15400        3.56000
