138
1ln1_DLP_model_38_chainB_pH74.pdb
C        -11.02400       -2.46200       -1.56800
C        -11.14500       -3.49500       -0.51900
C         -9.88900       -4.21600       -0.29800
C        -10.15000       -5.51900        0.32200
C         -9.19200       -5.80900        1.38200
C         -9.57400       -7.06100        2.02500
C         -9.34000       -7.30900        3.26200
C         -8.63300       -6.42100        4.13000
C         -9.18200       -6.49500        5.41600
C         -9.29900       -5.48500        6.21600
C         -8.55700       -5.22100        7.38300
C         -8.72400       -3.81400        7.76900
C         -8.37900       -2.94700        6.64200
C         -8.42300       -1.52700        6.98500
C         -9.53700       -0.88300        6.34100
C         -9.18900       -0.43600        5.00300
C         -8.67000        0.94100        5.01100
C         -7.76700        1.11600        3.85700
O         -8.18100        1.17500        2.75300
O         -6.47900        1.22200        4.16300
C         -5.54500        1.35600        3.11200
C         -4.25200        0.78500        3.60300
C         -3.13900        1.06400        2.62700
O         -2.19800        1.79600        3.33200
P         -0.74400        1.93800        2.79100
O         -0.75600        2.02400        1.32500
O         -0.10900        3.04400        3.50100
O          0.00400        0.62300        3.18400
C         -0.12500        0.13800        4.44300
C          1.07600       -0.65100        4.77300
N          0.79300       -2.01700        5.17000
C         -0.05600       -2.03300        6.36800
C          0.08800       -2.73200        4.07600
C          2.02600       -2.69700        5.43700
O         -4.35500       -0.60500        3.76000
C         -4.16200       -1.10300        5.02200
O         -3.99900       -0.36900        5.93500
C         -4.15500       -2.58300        5.22200
C         -5.23000       -3.25000        4.47600
C         -4.70500       -3.58200        3.14600
C         -5.75000       -4.10800        2.25800
C         -5.20700       -4.24100        0.87100
C         -6.03700       -3.58600       -0.13500
C         -5.49700       -2.30400       -0.56000
C         -6.59900       -1.45800       -0.76000
C         -6.71600       -0.24500       -0.70900
C         -5.80400        0.77700       -0.88500
C         -6.57200        1.99500       -0.89200
C         -6.17000        3.18200       -1.01900
C         -4.80300        3.66600       -1.10600
C         -4.85200        5.11900       -1.39200
C         -3.51200        5.65200       -1.74600
C         -3.38400        5.89000       -3.17400
C         -2.17300        6.71800       -3.49100
H        -11.96400       -1.96600       -1.69100
H        -10.74100       -2.92300       -2.49100
H        -10.27900       -1.74900       -1.28200
H        -11.89700       -4.19700       -0.81300
H        -11.40400       -3.00300        0.39500
H         -9.26000       -3.63900        0.34700
H         -9.40700       -4.37000       -1.24100
H        -10.08100       -6.28000       -0.42700
H        -11.12900       -5.49500        0.75200
H         -9.20000       -5.01700        2.10200
H         -8.20800       -5.89500        0.97200
H        -10.05400       -7.77900        1.46000
H         -9.68200       -8.20100        3.65200
H         -8.71700       -5.42000        3.76300
H         -7.60100       -6.70100        4.16500
H         -8.58900       -7.21400        5.94200
H        -10.20900       -6.68900        5.18600
H        -10.31800       -5.51200        6.54100
H         -8.88800       -4.72600        5.58400
H         -7.52200       -5.41900        7.19800
H         -8.90700       -5.84900        8.17500
H         -9.74100       -3.64100        8.05200
H         -8.07900       -3.59500        8.59400
H         -7.38900       -3.18900        6.31500
H         -9.10400       -3.11500        5.87300
H         -8.52300       -1.42500        8.04500
H         -7.51800       -1.06400        6.65100
H        -10.35000       -1.57600        6.27600
H         -9.81300       -0.02700        6.92100
H         -8.44000       -1.08700        4.60300
H        -10.07400       -0.45700        4.40200
H         -9.48400        1.63200        4.93900
H         -8.13700        1.12300        5.92100
H         -5.88100        0.81800        2.25000
H         -5.42800        2.38200        2.83200
H         -4.03600        1.24700        4.54400
H         -2.71200        0.14800        2.27600
H         -3.49100        1.59600        1.76800
H         -0.99200       -0.48600        4.50100
H         -0.23000        0.94700        5.13500
H          1.58700       -0.16600        5.57800
H          1.66700       -0.70300        3.88200
H         -0.97400       -1.52400        6.16100
H          0.45200       -1.54100        7.17100
H         -0.26400       -3.04600        6.64400
H          0.69700       -2.72700        3.19600
H         -0.84000       -2.24200        3.87000
H         -0.10100       -3.74200        4.37400
H          2.63900       -2.68100        4.56000
H          1.82200       -3.71100        5.71100
H          2.53700       -2.20600        6.23900
H         -3.21400       -2.97100        4.89100
H         -4.31100       -2.77400        6.26300
H         -5.52800       -4.14300        4.98500
H         -6.08400       -2.61100        4.39500
H         -4.29100       -2.69800        2.70700
H         -3.95900       -4.34000        3.26500
H         -6.06700       -5.06700        2.61000
H         -6.58300       -3.43600        2.25100
H         -4.23100       -3.80400        0.84400
H         -5.18500       -5.28500        0.63600
H         -6.11000       -4.22700       -0.98900
H         -6.99500       -3.40300        0.30500
H         -4.85500       -1.90300        0.19700
H         -4.91700       -2.40400       -1.45300
H         -6.92600       -1.70100       -1.74900
H         -7.08200       -1.66600        0.17200
H         -7.47400       -0.03400       -1.43400
H         -6.77700       -0.17300        0.35700
H         -5.09700        0.78700       -0.08200
H         -5.25000        0.65700       -1.79200
H         -7.59100        1.88000       -0.77700
H         -6.90600        3.90300       -1.06700
H         -4.29700        3.49500       -0.17900
H         -4.27400        3.15100       -1.88000
H         -5.52100        5.29000       -2.21000
H         -5.19000        5.62200       -0.51000
H         -3.35800        6.57500       -1.22600
H         -2.78000        4.92400       -1.46400
H         -3.30200        4.94900       -3.67700
H         -4.25000        6.42500       -3.50200
H         -1.29300        6.20000       -3.17000
H         -2.24000        7.65700       -2.98200
H         -2.12300        6.88700       -4.54600
