134
1ln1_DLP_model_1_chainB_pH74.pdb
C          8.52900       -0.42400        8.32300
C          9.28500        0.63100        7.60500
C          8.45700        1.76500        7.18800
C          9.26700        2.88000        6.67200
C          8.41300        4.04500        6.38100
C          9.22400        5.21500        6.06200
C          8.73000        6.43500        6.04700
C          7.32500        6.79500        6.16300
C          7.04100        7.23200        7.49300
C          5.94600        7.86400        7.86200
C          4.82600        8.30800        7.05000
C          3.56900        8.11500        7.80500
C          2.91700        6.86600        7.38900
C          2.54200        6.01000        8.53300
C          2.97600        4.63400        8.29000
C          2.56900        3.71000        9.35400
C          1.36900        2.94300        8.98400
C          1.66000        1.90000        7.97000
O          2.56900        1.14600        8.07000
O          0.81800        1.87400        6.95700
C          1.01100        0.95400        5.91000
C          0.60300        1.60900        4.62600
C          0.42300        0.58800        3.53300
O         -0.92500        0.54100        3.23100
P         -1.41300        0.05600        1.82400
O         -0.67400       -1.14100        1.41300
O         -2.86800       -0.08200        1.87600
O         -1.07000        1.21600        0.81600
C         -1.51500        2.48400        1.05500
C         -1.63200        3.22900       -0.22700
N         -0.61000        4.25900       -0.44600
C         -0.71100        5.31200        0.57800
C          0.73900        3.66000       -0.37900
C         -0.79300        4.84300       -1.74700
O          1.57000        2.53500        4.20100
C          1.20100        3.85300        4.08400
O          0.14300        4.21300        4.48200
C          2.16800        4.80200        3.42200
C          3.51800        4.77400        4.02300
C          4.23600        3.58900        3.53200
C          5.71100        3.78700        3.42200
C          6.47400        2.59700        3.92800
C          6.25600        1.35200        3.16600
C          6.36800        0.13700        4.01000
C          5.17200       -0.57900        3.94500
C          4.75600       -1.32600        4.98400
C          3.54400       -2.02000        4.84900
C          3.15200       -2.63500        6.10700
C          2.16900       -3.46000        6.22500
C          1.29000       -3.89000        5.11500
C          0.61900       -5.16700        5.46500
C         -0.09800       -5.75000        4.28500
C         -0.18000       -7.20300        4.35900
C         -0.90100       -7.78000        3.17900
H          9.19400       -1.21700        8.59600
H          7.75900       -0.80800        7.68600
H          8.08800       -0.00900        9.20500
H         10.05600        0.99500        8.25200
H          9.67800        0.18500        6.71500
H          7.78800        1.44000        6.41900
H          7.92100        2.11500        8.04500
H          9.99800        3.15300        7.40400
H          9.74900        2.56900        5.76900
H          7.78200        3.81800        5.54700
H          7.82300        4.26200        7.24700
H         10.22300        5.08100        5.84000
H          9.40300        7.21000        5.94300
H          6.72100        5.94200        5.93300
H          7.10800        7.58800        5.47900
H          7.74700        7.03800        8.22000
H          5.87300        8.07300        8.87000
H          4.94500        9.34500        6.81300
H          4.79200        7.73900        6.14400
H          2.91200        8.93800        7.61500
H          3.79300        8.06200        8.85000
H          3.59000        6.32100        6.76000
H          2.01700        7.12800        6.87300
H          1.47900        6.03000        8.65700
H          3.01700        6.37800        9.41800
H          4.04300        4.62100        8.21600
H          2.51000        4.30600        7.38400
H          2.36100        4.27300       10.24000
H          3.36900        3.01800        9.51600
H          0.97800        2.47100        9.86100
H          0.66200        3.62500        8.56000
H          2.04200        0.67300        5.86100
H          0.42300        0.07600        6.07800
H         -0.32300        2.11100        4.81400
H          0.98200        0.87600        2.66700
H          0.77300       -0.37200        3.85000
H         -2.47300        2.44000        1.52900
H         -0.81900        2.98700        1.69300
H         -1.56700        2.52200       -1.02800
H         -2.56900        3.74400       -0.18700
H          0.04100        6.05300        0.40300
H         -0.56900        4.88200        1.54700
H         -1.67800        5.76600        0.52800
H          0.82500        2.89200       -1.11900
H          0.89400        3.23800        0.59200
H          1.47400        4.41600       -0.56100
H         -0.72000        4.08000       -2.49400
H         -0.03700        5.58100       -1.91600
H         -1.75800        5.30200       -1.79900
H          2.25100        4.53700        2.38900
H          1.78200        5.79100        3.55500
H          3.43500        4.72700        5.08900
H          4.05300        5.66000        3.75100
H          4.05300        2.77900        4.20700
H          3.87200        3.38800        2.54600
H          5.98900        4.64600        3.99600
H          5.95200        3.92100        2.38800
H          7.51800        2.83100        3.89200
H          6.11700        2.41000        4.91900
H          6.98600        1.29600        2.38600
H          5.26100        1.38300        2.77400
H          6.56000        0.42200        5.02300
H          7.17200       -0.47400        3.65600
H          4.59900       -0.53500        3.08800
H          5.31100       -1.38700        5.85200
H          3.65800       -2.78300        4.10700
H          2.78400       -1.32500        4.55800
H          3.69200       -2.39700        6.95400
H          1.98100       -3.84900        7.16200
H          0.55000       -3.13800        4.93700
H          1.88100       -4.03300        4.23400
H          1.35500       -5.86500        5.80500
H         -0.10000       -4.97000        6.23200
H         -1.09000       -5.34900        4.25100
H          0.45300       -5.49500        3.40400
H          0.81100       -7.60500        4.39000
H         -0.72700       -7.46100        5.24200
H         -0.37100       -7.53400        2.28200
H         -1.89000       -7.37400        3.13200
H         -0.95700       -8.84400        3.28000
