54
1ln1_DLP_model_3_chainB.pdb
C          5.65300        1.85400       -9.21100
C          6.01900        3.28200       -9.15100
C          5.15600        4.05600       -8.24100
C          5.43100        5.49900       -8.36500
C          5.07500        6.24800       -7.14800
C          5.48300        7.63800       -7.30400
C          6.11600        8.34800       -6.43600
C          6.41000        8.04300       -5.06100
C          7.77900        7.71700       -4.95000
C          8.54200        7.72700       -3.92000
C          8.25400        7.88000       -2.53700
C          9.29500        7.16900       -1.79900
C          8.84100        5.90100       -1.23800
C          8.67300        4.88000       -2.29200
C          9.29900        3.62600       -1.94300
C          8.89400        2.59000       -2.87600
C          8.66900        1.32500       -2.16300
C          7.26900        0.89900       -2.30000
O          6.84300        0.51000       -3.33100
O          6.53100        0.94200       -1.19300
C          5.19200        0.48300       -1.23900
C          4.33700        1.39300       -0.41000
C          2.92900        0.85100       -0.30300
O          2.78600        0.35900        0.96900
P          1.40000       -0.03700        1.55500
O          0.53000       -0.56300        0.51300
O          1.64900       -0.92300        2.68600
O          0.74000        1.28200        2.10100
C          1.47600        2.22400        2.72800
C          0.58900        3.21100        3.38800
N          0.63700        4.55300        2.84000
C          1.98300        5.10300        2.95500
C          0.27000        4.54800        1.41200
C         -0.28200        5.39800        3.53900
O          4.29100        2.68100       -0.94800
C          4.66900        3.72500       -0.14600
O          4.87500        3.54700        1.00700
C          4.82800        5.07400       -0.76100
C          3.73200        5.46700       -1.66600
C          4.04100        4.99600       -3.03500
C          2.84800        5.03900       -3.92700
C          3.03800        4.09600       -5.07200
C          1.81500        3.41800       -5.50800
C          1.75200        2.01600       -5.14700
C          2.87700        1.32000       -5.59600
C          3.33600        0.19000       -5.31500
C          2.96800       -0.75300       -4.37100
C          3.58100       -1.98900       -4.74200
C          3.47400       -3.13100       -4.21500
C          2.81200       -3.54100       -2.99700
C          2.49900       -4.98400       -3.07600
C          1.65900       -5.43100       -1.94800
C          0.90500       -6.65200       -2.26800
C         -0.01200       -7.06700       -1.16200
