54
1ln1_DLP_model_8_chainB.pdb
C         -8.41500        2.88000        7.12400
C         -7.68500        3.28700        8.33700
C         -6.22800        3.07600        8.23600
C         -5.55700        3.35500        9.51100
C         -4.19400        3.86100        9.31100
C         -3.62200        4.31800       10.57300
C         -2.83400        5.34900       10.69100
C         -2.30400        6.17800        9.64300
C         -2.62500        7.53400        9.92400
C         -2.04000        8.61100        9.47400
C         -1.15500        8.75300        8.35200
C         -1.52600        9.97000        7.65400
C         -1.89300        9.80300        6.27000
C         -2.92600        8.79400        5.99600
C         -4.21100        9.35500        5.65100
C         -5.00200        8.39400        4.89200
C         -4.87700        8.63600        3.43500
C         -4.79000        7.36400        2.68800
O         -5.69200        6.59900        2.66500
O         -3.65100        7.15600        2.02000
C         -3.47400        5.94900        1.28500
C         -2.03300        5.55100        1.30100
C         -1.79700        4.32900        0.44800
O         -1.24400        4.74500       -0.73700
P         -0.33500        3.78000       -1.56800
O         -1.00000        2.49000       -1.76000
O          0.06600        4.47900       -2.78300
O          0.96300        3.52700       -0.71200
C          1.74300        4.58200       -0.34900
C          3.14200        4.12600       -0.17000
N          3.58200        4.01500        1.20700
C          3.47600        5.31000        1.88900
C          2.73700        3.03700        1.93800
C          4.93900        3.56000        1.24900
O         -1.58700        5.27900        2.59900
C         -0.53300        6.00800        3.08100
O         -0.12600        6.93900        2.46400
C          0.09700        5.59300        4.37400
C         -0.86000        5.29000        5.42000
C         -1.17100        3.85400        5.39900
C         -1.81100        3.39900        6.63900
C         -2.48400        2.07800        6.61100
C         -2.88100        1.50200        5.33500
C         -4.32900        1.54700        5.04600
C         -4.52900        1.44700        3.66200
C         -5.41700        2.21200        3.02700
C         -5.44400        2.21300        1.62600
C         -6.50200        3.07500        1.14400
C         -6.81700        3.21100       -0.09800
C         -6.05500        2.65700       -1.23300
C         -6.95100        2.36500       -2.38100
C         -6.17100        1.94900       -3.58100
C         -6.93600        1.10500       -4.48500
C         -6.14000        0.64000       -5.65800
