134
1ln1_DLP_model_6_chainB_pH74.pdb
C         -6.61800       -7.98200       -4.91400
C         -5.41000       -8.78500       -5.19000
C         -4.18200       -7.95100       -5.27400
C         -3.10400       -8.69900       -5.93900
C         -1.77500       -8.36200       -5.39500
C         -0.73700       -9.01700       -6.19600
C          0.42600       -9.39900       -5.72300
C          0.89700       -9.25700       -4.34700
C          0.70900      -10.49800       -3.67600
C          1.30900      -10.91800       -2.59800
C          2.15300      -10.24300       -1.64800
C          1.94800      -10.91400       -0.35300
C          1.23800      -10.05200        0.59900
C         -0.21700      -10.14100        0.38800
C         -0.92600       -9.34400        1.37400
C         -2.35200       -9.45200        1.17200
C         -3.04900       -8.62600        2.16200
C         -3.21000       -7.25400        1.64400
O         -3.96800       -7.00500        0.77300
O         -2.47400       -6.31100        2.24000
C         -2.69100       -4.95500        1.88000
C         -1.37100       -4.26400        1.75400
C         -1.58600       -2.77500        1.59100
O         -1.12700       -2.17700        2.74500
P         -0.93800       -0.62600        2.80400
O         -1.98500        0.04900        2.04300
O         -0.82800       -0.23700        4.20000
O          0.43600       -0.32400        2.10700
C          1.50900       -1.10900        2.37500
C          2.74700       -0.39500        2.01700
N          3.56200       -1.05900        1.02300
C          4.02600       -2.34600        1.53500
C          2.78000       -1.31700       -0.20900
C          4.69200       -0.24500        0.70700
O         -0.64700       -4.73300        0.64800
C          0.59600       -5.27300        0.86900
O          1.14100       -5.11000        1.91200
C          1.22900       -6.07100       -0.22700
C          1.22600       -5.40400       -1.54500
C         -0.13600       -5.48200       -2.11800
C         -0.16300       -5.34300       -3.60400
C         -1.23400       -4.38800       -4.04500
C         -2.59300       -4.96200       -4.00100
C         -3.66600       -3.96500       -4.10200
C         -3.93100       -3.40800       -2.84400
C         -4.90000       -3.90600       -2.05400
C         -5.25000       -3.18700       -0.90400
C         -6.35100       -3.84600       -0.20600
C         -6.97200       -3.31000        0.78800
C         -6.59300       -2.03200        1.42600
C         -7.80600       -1.31200        1.90400
C         -7.43900       -0.10500        2.67100
C         -8.56900        0.82700        2.81800
C         -8.20600        2.03900        3.62700
H         -7.47100       -8.62600       -4.86300
H         -6.75700       -7.26700       -5.69700
H         -6.50100       -7.47100       -3.98100
H         -5.28600       -9.50100       -4.40400
H         -5.54500       -9.26300       -6.13800
H         -4.39500       -7.06400       -5.83400
H         -3.86800       -7.69200       -4.28500
H         -3.27700       -9.74600       -5.80300
H         -3.11200       -8.43500       -6.97600
H         -1.63500       -7.30200       -5.42800
H         -1.70900       -8.70000       -4.38200
H         -0.93300       -9.18900       -7.19500
H          1.07400       -9.84500       -6.39100
H          0.33900       -8.49000       -3.85200
H          1.93300       -8.98900       -4.33900
H          0.01700      -11.14000       -4.09200
H          1.15000      -11.91600       -2.38800
H          1.87800       -9.21100       -1.57700
H          3.18000      -10.28400       -1.94600
H          2.90100      -11.17300        0.05800
H          1.35300      -11.78700       -0.52000
H          1.55300       -9.03900        0.46000
H          1.46400      -10.37400        1.59400
H         -0.52300      -11.16300        0.47500
H         -0.44800       -9.76800       -0.58800
H         -0.63200       -8.32000        1.27800
H         -0.68400       -9.70400        2.35200
H         -2.65200      -10.47300        1.28400
H         -2.60000       -9.11400        0.18700
H         -2.47900       -8.59900        3.06700
H         -4.01400       -9.04600        2.35600
H         -3.20900       -4.91100        0.94500
H         -3.28000       -4.47300        2.63200
H         -0.81300       -4.46900        2.64400
H         -2.62700       -2.56600        1.45700
H         -1.06500       -2.40400        0.73300
H          1.52400       -1.34700        3.41800
H          1.44100       -2.01000        1.80200
H          2.47800        0.56900        1.63800
H          3.33700       -0.34700        2.90800
H          4.62700       -2.82900        0.79300
H          3.18300       -2.96200        1.76700
H          4.60800       -2.18900        2.41900
H          3.40100       -1.80800       -0.92900
H          2.43200       -0.38900       -0.61100
H          1.94300       -1.94100        0.02400
H          5.29300       -0.73900       -0.02800
H          5.27200       -0.08200        1.59100
H          4.35800        0.69500        0.32100
H          2.24500       -6.26900        0.04600
H          0.64600       -6.96200       -0.33300
H          1.50900       -4.37900       -1.42900
H          1.92200       -5.88800       -2.19800
H         -0.55900       -6.43000       -1.85800
H         -0.69600       -4.66400       -1.71400
H          0.78700       -4.97900       -3.93700
H         -0.37200       -6.30300       -4.02800
H         -1.20800       -3.53100       -3.40400
H         -1.03200       -4.14000       -5.06600
H         -2.69500       -5.64900       -4.81500
H         -2.69900       -5.43500       -3.04700
H         -4.55200       -4.43600       -4.47300
H         -3.35800       -3.18800       -4.76900
H         -3.37400       -2.60300       -2.51800
H         -5.37200       -4.79300       -2.28900
H         -5.55100       -2.19900       -1.18400
H         -4.40300       -3.14200       -0.25200
H         -6.64500       -4.78300       -0.52300
H         -7.79300       -3.80900        1.16500
H         -6.07800       -1.42100        0.71400
H         -5.95800       -2.23600        2.26200
H         -8.37600       -1.96500        2.53100
H         -8.38100       -1.01200        1.05300
H         -6.64200        0.39700        2.16300
H         -7.14200       -0.41700        3.65000
H         -9.37500        0.31700        3.30400
H         -8.85000        1.15800        1.84000
H         -7.92000        1.73700        4.61300
H         -9.05000        2.69500        3.68500
H         -7.39000        2.54900        3.15900
