136
1ln1_DLP_model_27_chainB_pH74.pdb
C         -5.61700       -1.87300       -9.06500
C         -4.64100       -1.41700      -10.07600
C         -3.43100       -0.83700       -9.46100
C         -2.54800       -0.25700      -10.48700
C         -1.13100       -0.41900      -10.13100
C         -0.30900        0.07000      -11.23500
C          0.85000       -0.42200      -11.54000
C          1.56400       -1.44800      -10.82000
C          1.74400       -2.55600      -11.70800
C          2.60500       -3.50900      -11.56100
C          3.45500       -3.76200      -10.42400
C          3.52400       -5.21200      -10.30200
C          3.14000       -5.71700       -8.99300
C          1.74000       -5.41800       -8.60900
C          0.81000       -6.47400       -8.98100
C         -0.40500       -6.37300       -8.18000
C         -0.24600       -7.07700       -6.88600
C         -0.76200       -6.24000       -5.78200
O         -1.88600       -5.87500       -5.74800
O          0.11700       -5.94400       -4.82100
C         -0.29200       -5.15100       -3.71800
C          0.87600       -4.33000       -3.24600
C          0.52400       -3.59000       -1.98300
O          1.10900       -4.27000       -0.94500
P          1.33900       -3.55900        0.42800
O          0.14000       -2.82200        0.82800
O          1.81300       -4.56100        1.38000
O          2.49100       -2.51200        0.21100
C          3.65800       -2.90900       -0.36700
C          4.72400       -1.93300       -0.05300
N          5.17100       -1.13000       -1.18200
C          4.04400       -0.34300       -1.74400
C          5.71000       -2.00800       -2.24500
C          6.19600       -0.22200       -0.75100
O          1.24900       -3.38400       -4.21200
C          2.49300       -3.49500       -4.76600
O          3.17200       -4.43600       -4.52500
C          2.96600       -2.39700       -5.67500
C          1.90600       -1.91000       -6.57400
C          1.15500       -0.85400       -5.87900
C         -0.09600       -0.49100       -6.58100
C         -0.78700        0.62600       -5.87300
C         -2.23500        0.46200       -5.77100
C         -2.67300       -0.40800       -4.68600
C         -3.28700       -1.51800       -5.28500
C         -3.64100       -2.59800       -4.75600
C         -3.79800       -2.84200       -3.38200
C         -4.39100       -4.15200       -3.26800
C         -4.69800       -4.75300       -2.19400
C         -4.41400       -4.29800       -0.83800
C         -5.31300       -5.02400        0.09400
C         -5.02000       -4.66300        1.49900
C         -6.07600       -5.13300        2.40600
C         -5.75300       -4.82300        3.83600
H         -6.47400       -2.28400       -9.55600
H         -5.91700       -1.04400       -8.45900
H         -5.16700       -2.62200       -8.44700
H         -4.35400       -2.25300      -10.67900
H         -5.10900       -0.65500      -10.66400
H         -3.72100       -0.07000       -8.77300
H         -2.90000       -1.61400       -8.95200
H         -2.73000       -0.74700      -11.42000
H         -2.75900        0.79000      -10.55900
H         -0.91600        0.14300       -9.24600
H         -0.91800       -1.45200       -9.94900
H         -0.67200        0.85100      -11.80400
H          1.30900       -0.04200      -12.38300
H          2.51600       -1.07600      -10.50300
H          1.01500       -1.74800       -9.95200
H          1.13300       -2.59800      -12.53800
H          2.69500       -4.16700      -12.35100
H          3.03300       -3.33200       -9.53900
H          4.42500       -3.32900      -10.55000
H          4.53000       -5.51800      -10.49800
H          2.82500       -5.61400      -11.00500
H          3.78800       -5.28000       -8.26200
H          3.22300       -6.78300       -9.04000
H          1.43900       -4.51300       -9.09400
H          1.71300       -5.32900       -7.54300
H          1.26800       -7.42600       -8.81100
H          0.55800       -6.37200      -10.01600
H         -1.21800       -6.81200       -8.72000
H         -0.60000       -5.33900       -7.98500
H          0.79100       -7.28100       -6.72000
H         -0.79800       -7.99300       -6.91700
H         -0.62800       -5.78600       -2.92500
H         -1.09200       -4.50500       -4.01400
H          1.68700       -5.00500       -3.06800
H         -0.53800       -3.56600       -1.85500
H          0.87200       -2.57900       -2.02200
H          3.93300       -3.87100        0.01100
H          3.52800       -2.96500       -1.42800
H          4.35600       -1.27000        0.70200
H          5.57100       -2.50500        0.26300
H          4.39300        0.23900       -2.57100
H          3.65200        0.30700       -0.99000
H          3.27500       -1.00900       -2.07600
H          6.03600       -1.41000       -3.07000
H          4.94600       -2.68200       -2.57300
H          6.53800       -2.56700       -1.86100
H          6.52300        0.36700       -1.58200
H          7.02300       -0.77700       -0.36000
H          5.80600        0.42100        0.01000
H          3.30900       -1.58000       -5.07600
H          3.75000       -2.79600       -6.28400
H          2.34300       -1.51400       -7.46700
H          1.25100       -2.71400       -6.83800
H          0.90900       -1.19800       -4.89600
H          1.77400        0.01800       -5.84800
H         -0.74300       -1.34300       -6.61100
H          0.14400       -0.17500       -7.57500
H         -0.58800        1.53400       -6.40300
H         -0.40700        0.64000       -4.87300
H         -2.59000        0.05000       -6.69300
H         -2.63600        1.43200       -5.56200
H         -3.37100        0.10600       -4.05900
H         -1.84800       -0.70700       -4.07400
H         -4.18300       -1.12600       -5.71900
H         -2.44400       -1.88400       -5.83300
H         -2.92200       -3.31800       -5.08600
H         -4.66700       -2.61600       -5.05800
H         -4.44000       -2.10600       -2.94600
H         -2.86000       -2.79400       -2.86900
H         -4.58500       -4.65100       -4.15000
H         -5.19700       -5.65100       -2.28900
H         -4.59100       -3.24500       -0.76500
H         -3.39100       -4.49200       -0.59000
H         -5.17300       -6.07700       -0.03400
H         -6.32400       -4.75200       -0.12500
H         -4.94400       -3.59900        1.57600
H         -4.10100       -5.13200        1.78200
H         -6.18300       -6.19200        2.29600
H         -6.98500       -4.62900        2.15100
H         -4.84600       -5.31800        4.11200
H         -6.55000       -5.16300        4.46400
H         -5.63300       -3.76600        3.95300
