138
1ln1_DLP_model_35_chainB_pH74.pdb
C          9.78000       -3.02400        5.18800
C          9.34200       -2.71400        6.55300
C          7.88700       -2.61600        6.67500
C          7.50500       -2.49500        8.08900
C          6.06300       -2.61600        8.22700
C          5.65800       -2.63000        9.62900
C          4.74700       -3.47400       10.05300
C          4.71400       -4.82900        9.57700
C          3.39700       -5.24700        9.29500
C          3.23600       -6.60000        9.17700
C          1.99300       -7.09300        8.73600
C          2.23100       -8.26600        7.89500
C          2.00500       -7.97700        6.47700
C          3.19400       -7.39400        5.84400
C          3.92900       -8.35000        5.05700
C          4.81100       -7.62700        4.16600
C          4.45100       -7.89900        2.77400
C          4.44500       -6.64400        2.00800
O          5.43200       -6.02900        1.79600
O          3.26300       -6.28900        1.54300
C          3.15300       -5.08800        0.80600
C          1.81800       -4.50900        1.11900
C          1.51400       -3.32300        0.23700
O          0.66300       -3.78600       -0.73000
P         -0.17900       -2.77700       -1.56400
O          0.68200       -1.70100       -2.05600
O         -0.90500       -3.54100       -2.57400
O         -1.23200       -2.14500       -0.58300
C         -2.05800       -2.96500        0.12900
C         -3.21700       -2.19200        0.61500
N         -3.20700       -1.90900        2.04100
C         -3.22100       -3.15800        2.81200
C         -1.99100       -1.14300        2.40900
C         -4.35700       -1.12200        2.39000
O          1.75800       -4.10900        2.45100
C          0.72500       -4.61000        3.18800
O         -0.17200       -5.16600        2.65100
C          0.76600       -4.45900        4.66800
C          1.09900       -3.10100        5.10700
C          2.56300       -2.98700        5.20000
C          2.98700       -1.65300        5.68400
C          4.44300       -1.47200        5.43500
C          4.72500       -0.32500        4.57300
C          5.92000       -0.53700        3.75900
C          5.50700       -0.91500        2.47100
C          6.21200       -1.85900        1.85700
C          5.86900       -2.08900        0.52800
C          6.72500       -3.11700       -0.02800
C          6.67700       -3.45800       -1.26500
C          5.73500       -2.88600       -2.24000
C          6.32500       -2.97400       -3.59300
C          5.43300       -2.35200       -4.59400
C          6.16700       -2.00500       -5.81700
C          5.26600       -1.46600       -6.87700
H         10.84800       -3.08300        5.16100
H          9.44800       -2.25400        4.52300
H          9.36300       -3.96100        4.88400
H          9.77300       -1.78000        6.84600
H          9.66400       -3.51600        7.18400
H          7.43700       -3.49400        6.26100
H          7.54900       -1.75000        6.14600
H          7.81800       -1.54100        8.46000
H          7.97800       -3.27500        8.64800
H          5.74500       -3.52700        7.76400
H          5.60900       -1.77000        7.75500
H          5.29400       -1.64900        9.85200
H          6.54300       -2.96100       10.13100
H          4.85400       -3.52800       11.11600
H          3.84300       -3.06300        9.65500
H          5.29900       -4.89800        8.68400
H          5.11000       -5.46300       10.34300
H          2.76300       -4.90400       10.08600
H          3.14700       -4.83000        8.34200
H          3.97600       -6.94700        8.48700
H          3.32000       -6.96200       10.18000
H          1.39400       -7.36900        9.57900
H          1.47700       -6.34000        8.17800
H          3.24400       -8.58500        8.02600
H          1.54400       -9.03100        8.19100
H          1.75600       -8.88700        5.97300
H          1.20800       -7.26700        6.40500
H          2.88400       -6.59200        5.20700
H          3.84100       -7.05200        6.62400
H          4.50400       -8.98200        5.70100
H          3.25300       -8.95800        4.49200
H          4.72400       -6.57800        4.35600
H          5.81900       -7.94400        4.33600
H          5.16500       -8.57200        2.34700
H          3.47600       -8.33900        2.74000
H          3.92600       -4.40700        1.09500
H          3.25400       -5.27200       -0.24300
H          1.09000       -5.27200        0.93800
H          1.04600       -2.54700        0.80500
H          2.40500       -2.90900       -0.18700
H         -1.52500       -3.37100        0.96300
H         -2.39800       -3.76200       -0.49900
H         -4.10400       -2.74700        0.39200
H         -3.17600       -1.24400        0.12000
H         -4.09300       -3.72400        2.55800
H         -3.23400       -2.93200        3.85800
H         -2.34600       -3.72900        2.58200
H         -1.96500       -0.22800        1.85500
H         -1.12100       -1.72300        2.18100
H         -2.01000       -0.92600        3.45700
H         -4.34900       -0.21100        1.82900
H         -4.33100       -0.89700        3.43600
H         -5.24700       -1.67200        2.16500
H          1.50200       -5.13100        5.05700
H         -0.21500       -4.67700        5.03400
H          0.66100       -2.91400        6.06500
H          0.71900       -2.38600        4.40800
H          2.98400       -3.15300        4.23100
H          2.90700       -3.71800        5.90200
H          2.79300       -1.57700        6.73300
H          2.44000       -0.89500        5.16300
H          4.93600       -1.32600        6.37300
H          4.79900       -2.34900        4.93600
H          3.88900       -0.16500        3.92500
H          4.89600        0.52600        5.19800
H          6.48900        0.36800        3.70700
H          6.53300       -1.30000        4.19100
H          4.68900       -0.47700        2.02000
H          6.96200       -2.38500        2.33200
H          4.84900       -2.40800        0.47400
H          5.99300       -1.18500       -0.03100
H          7.39800       -3.59300        0.59300
H          7.33900       -4.17700       -1.59600
H          4.81600       -3.43300       -2.21400
H          5.54300       -1.86200       -1.99700
H          7.26700       -2.46700       -3.59900
H          6.45700       -4.00600       -3.84400
H          4.65100       -3.04000       -4.84000
H          5.02800       -1.45400       -4.17600
H          6.90300       -1.26500       -5.58000
H          6.62200       -2.89700       -6.19300
H          4.79700       -0.57100       -6.52500
H          4.51700       -2.19300       -7.11200
H          5.83800       -1.24800       -7.75400
