136
1ln1_DLP_model_49_chainB_pH74.pdb
C         -6.13400        2.04900        5.44900
C         -4.91400        1.52300        6.10700
C         -4.56800        0.16600        5.62100
C         -3.25900       -0.31300        6.10500
C         -2.84100       -1.55200        5.41600
C         -3.64100       -2.69000        5.88100
C         -3.69400       -3.82800        5.28400
C         -2.96800       -4.19100        4.11200
C         -3.64900       -5.18800        3.39100
C         -3.14000       -5.60200        2.20800
C         -3.64700       -6.70000        1.52600
C         -2.88800       -6.94900        0.29900
C         -1.64300       -7.69800        0.54700
C         -0.76400       -7.73900       -0.65800
C          0.37700       -8.68400       -0.53700
C          1.70500       -8.07000       -0.83400
C          2.48200       -7.79900        0.42900
C          2.61200       -6.35400        0.62800
O          3.53400       -5.71800        0.22800
O          1.61500       -5.81100        1.31300
C          1.37400       -4.46200        1.15900
C          0.51700       -4.00300        2.28700
C          0.04300       -2.60100        2.02500
O          0.85400       -1.65100        2.69400
P          0.90000       -0.16200        2.23700
O         -0.45200        0.31600        1.90500
O          1.61600        0.61300        3.23700
O          1.74300       -0.12400        0.92200
C          3.00800       -0.61700        0.90400
C          3.69100       -0.22400       -0.35400
N          4.00300       -1.32900       -1.25400
C          4.86500       -2.30800       -0.58100
C          2.76800       -2.00800       -1.67900
C          4.66600       -0.84400       -2.43100
O          1.26400       -4.07700        3.45600
C          0.88900       -4.94600        4.41100
O         -0.15700       -5.51000        4.38300
C          1.87300       -5.14800        5.50900
C          1.50400       -6.25300        6.42700
C          1.77900       -7.55500        5.83000
C          3.16900       -7.91800        5.95400
C          3.52500       -8.84900        4.89300
C          4.88400       -8.66700        4.46200
C          5.02000       -9.13200        3.10400
C          5.02100      -10.57400        3.06200
C          4.24400      -11.36100        2.38600
C          2.94200      -11.06100        1.91300
C          2.36100      -12.24800        1.29900
C          1.10000      -12.43900        1.05700
C          0.03600      -11.43500        1.14200
C         -1.24200      -11.99900        1.60500
C         -2.17000      -10.93600        1.99100
C         -3.09500      -11.32800        3.04200
C         -3.91200      -10.15400        3.56000
H         -6.34900        3.02700        5.82600
H         -6.95800        1.39800        5.65400
H         -5.97500        2.10100        4.39200
H         -5.08100        1.48100        7.16300
H         -4.10100        2.17800        5.87200
H         -5.32300       -0.51600        5.95300
H         -4.51100        0.21700        4.55400
H         -2.52500        0.44600        5.92900
H         -3.34800       -0.52600        7.15000
H         -2.97800       -1.43200        4.36200
H         -1.81000       -1.74000        5.63400
H         -4.19700       -2.57000        6.74200
H         -4.31800       -4.54300        5.69000
H         -2.85000       -3.32800        3.49100
H         -2.01200       -4.57200        4.40500
H         -4.52200       -5.59700        3.75800
H         -2.34700       -5.08400        1.79800
H         -3.58700       -7.56200        2.15600
H         -4.66500       -6.49900        1.26400
H         -3.49900       -7.51300       -0.37400
H         -2.61900       -6.00000       -0.11500
H         -1.11000       -7.22700        1.34700
H         -1.90800       -8.70400        0.79700
H         -1.35700       -8.03300       -1.49900
H         -0.34700       -6.76000       -0.77300
H          0.39700       -9.06200        0.46400
H          0.22100       -9.45400       -1.26400
H          1.55300       -7.14700       -1.35400
H          2.26600       -8.75600       -1.43300
H          3.45500       -8.23600        0.34800
H          1.96400       -8.22600        1.26200
H          0.87100       -4.28900        0.23000
H          2.29800       -3.92200        1.15800
H         -0.34900       -4.62300        2.38500
H         -0.96500       -2.50400        2.37000
H          0.10200       -2.41500        0.97300
H          3.55200       -0.22700        1.73900
H          2.96900       -1.68500        0.96200
H          3.05700        0.46100       -0.87600
H          4.62900        0.20300       -0.06600
H          5.08500       -3.11100       -1.25300
H          4.36200       -2.69200        0.28200
H          5.77600       -1.83400       -0.28100
H          3.01300       -2.81500       -2.33800
H          2.13500       -1.31100       -2.18800
H          2.25800       -2.39100       -0.82000
H          4.88800       -1.66600       -3.08000
H          5.57600       -0.35500       -2.15200
H          4.02900       -0.15000       -2.93900
H          1.94100       -4.24300        6.07600
H          2.80700       -5.40900        5.05600
H          0.46000       -6.18600        6.65000
H          2.09000       -6.16100        7.31800
H          1.18300       -8.29500        6.32200
H          1.54100       -7.50000        4.78800
H          3.77500       -7.04000        5.87600
H          3.33300       -8.38200        6.90400
H          3.40700       -9.84900        5.25500
H          2.88200       -8.66500        4.05800
H          5.13900       -7.62900        4.51100
H          5.53900       -9.22400        5.09900
H          4.20100       -8.76300        2.52200
H          5.94600       -8.77300        2.70600
H          6.00900      -10.83300        2.74300
H          4.62200      -10.76000        4.03700
H          4.80400      -11.62000        1.51200
H          3.99500      -12.06400        3.15300
H          2.32900      -10.74700        2.73200
H          2.99900      -10.27700        1.18800
H          3.01000      -13.00500        1.03300
H          0.81900      -13.39200        0.77700
H         -0.11000      -11.00800        0.17200
H          0.34200      -10.70000        1.85600
H         -1.06100      -12.63000        2.45000
H         -1.67800      -12.56100        0.80600
H         -2.73700      -10.65200        1.12900
H         -1.58200      -10.12800        2.37400
H         -2.53600      -11.74400        3.85500
H         -3.77500      -12.04300        2.62900
H         -3.25600       -9.42100        3.98000
H         -4.59200      -10.49700        4.31200
H         -4.46300       -9.71900        2.75200
