136
1ln1_DLP_model_29_chainB_pH74.pdb
C         -9.78200       -4.03100       -6.93500
C         -8.58200       -4.89600       -7.04300
C         -7.91400       -4.78700       -8.33800
C         -7.17800       -6.00800       -8.65000
C         -6.08400       -5.84200       -9.62500
C         -5.99000       -7.03400      -10.48700
C         -5.46900       -8.18200      -10.11700
C         -4.47300       -8.37500       -9.08800
C         -4.42100       -9.74900       -8.70100
C         -3.43400      -10.12200       -7.81500
C         -3.40700      -11.40700       -7.25700
C         -3.81600      -11.46600       -5.83800
C         -3.55600      -10.21600       -5.11500
C         -4.19000      -10.20800       -3.78100
C         -5.62900      -10.06900       -3.85400
C         -6.09400       -8.81900       -3.25100
C         -5.54800       -8.57600       -1.90900
C         -5.28300       -7.12800       -1.75100
O         -6.14300       -6.32200       -1.85700
O         -4.01900       -6.80700       -1.45700
C         -3.67900       -5.44900       -1.28700
C         -2.21600       -5.29700       -1.58900
C         -1.72800       -3.91300       -1.25000
O         -0.89700       -4.04500       -0.15500
P          0.19000       -2.96600        0.13600
O         -0.37800       -1.61800        0.01300
O          0.80300       -3.28500        1.42400
O          1.28900       -3.12100       -0.97600
C          1.88400       -4.33200       -1.15300
C          3.22100       -4.13300       -1.77000
N          3.32800       -4.58100       -3.15000
C          3.07800       -6.02600       -3.23900
C          2.33100       -3.88300       -4.01100
C          4.64300       -4.29400       -3.65400
O         -1.95200       -5.53400       -2.94400
C         -1.15500       -6.60600       -3.24700
O         -0.84900       -7.38600       -2.39900
C         -0.67800       -6.75900       -4.66100
C         -1.77700       -6.72600       -5.63700
C         -2.12100       -5.32500       -5.92100
C         -2.82800       -5.13900       -7.21200
C         -4.09200       -4.34900       -7.04700
C         -3.88200       -2.95400       -6.60800
C         -5.14100       -2.34400       -6.12200
C         -4.96000       -1.94100       -4.76600
C         -5.78100       -2.43400       -3.81900
C         -5.60800       -1.92200       -2.52300
C         -6.49700       -2.57400       -1.57200
C         -6.53500       -2.23500       -0.30900
C         -5.70800       -1.16100        0.30300
C         -6.01100       -1.06600        1.76200
C         -5.09200       -0.12900        2.44600
C         -5.71500        1.16800        2.75600
C         -4.81100        2.06500        3.56500
H        -10.22500       -4.15500       -5.96900
H        -10.48900       -4.30600       -7.68900
H         -9.49800       -3.00800       -7.06900
H         -7.88900       -4.61500       -6.27700
H         -8.90700       -5.91000       -6.93500
H         -8.64800       -4.61700       -9.09800
H         -7.22200       -3.97200       -8.29800
H         -6.75800       -6.38500       -7.74100
H         -7.88200       -6.67600       -9.10000
H         -6.27700       -4.98100      -10.23100
H         -5.16100       -5.71600       -9.09800
H         -6.99500       -7.25600      -10.78100
H         -5.26100       -6.70600      -11.19800
H         -5.03600       -8.59200      -11.00600
H         -6.31700       -8.61700       -9.63100
H         -4.72400       -7.77800       -8.23700
H         -3.51700       -8.08400       -9.47000
H         -5.09700      -10.43600       -9.07100
H         -2.70100       -9.44200       -7.55800
H         -2.40800      -11.78400       -7.33300
H         -4.11700      -11.99200       -7.80400
H         -3.27500      -12.25600       -5.36000
H         -4.87200      -11.63500       -5.81600
H         -3.94300       -9.39900       -5.68700
H         -2.49800      -10.12600       -4.98000
H         -3.79400       -9.38900       -3.21700
H         -3.97700      -11.14600       -3.31300
H         -6.08100      -10.89000       -3.33800
H         -5.90600      -10.05900       -4.88700
H         -7.16100       -8.85300       -3.18100
H         -5.75300       -8.02200       -3.87800
H         -4.63600       -9.12300       -1.78800
H         -6.25100       -8.89800       -1.16900
H         -4.25300       -4.84400       -1.95700
H         -3.88700       -5.13600       -0.28500
H         -1.70300       -6.01800       -0.98700
H         -2.55500       -3.27800       -1.01100
H         -1.21000       -3.47300       -2.07700
H          1.99500       -4.81800       -0.20600
H          1.27900       -4.94000       -1.79300
H          3.44900       -3.08800       -1.74000
H          3.90600       -4.73000       -1.20500
H          3.16000       -6.34000       -4.25900
H          2.09400       -6.24100       -2.87800
H          3.79800       -6.55000       -2.64500
H          2.42800       -4.22700       -5.01900
H          2.50600       -2.82800       -3.97600
H          1.34400       -4.09300       -3.65600
H          4.71600       -4.62500       -4.66900
H          5.37200       -4.80300       -3.05900
H          4.82000       -3.24000       -3.60900
H          0.00000       -5.96100       -4.88200
H         -0.20400       -7.71500       -4.74100
H         -1.47000       -7.21000       -6.54000
H         -2.63000       -7.23500       -5.23900
H         -2.75100       -4.96500       -5.13500
H         -1.20100       -4.78200       -5.98500
H         -2.18200       -4.62100       -7.88900
H         -3.08700       -6.10500       -7.59100
H         -4.70300       -4.84100       -6.31900
H         -4.55300       -4.30100       -8.01200
H         -3.51400       -2.38100       -7.43300
H         -3.17700       -2.95700       -5.80300
H         -5.93400       -3.05900       -6.18200
H         -5.39100       -1.49600       -6.72400
H         -4.20900       -1.28000       -4.51300
H         -6.49600       -3.14700       -4.03300
H         -5.81700       -0.87300       -2.53200
H         -4.59800       -2.10500       -2.22000
H         -7.11800       -3.32800       -1.90500
H         -7.18500       -2.74900        0.30600
H         -5.93100       -0.22700       -0.16900
H         -4.67200       -1.39100        0.16900
H         -5.91000       -2.03600        2.20200
H         -7.01000       -0.69900        1.87500
H         -4.24700        0.04200        1.81300
H         -4.81200       -0.57900        3.37600
H         -6.61200        0.99300        3.31200
H         -5.91700        1.66200        1.82800
H         -4.59000        1.59800        4.50200
H         -5.30000        3.00000        3.74000
H         -3.90100        2.23300        3.02700
