140
1ln1_DLP_model_10_chainB_pH74.pdb
C         -5.11000       -8.02900       -6.88400
C         -4.14100       -9.09400       -6.49600
C         -2.74700       -8.62200       -6.63100
C         -1.79000       -9.75400       -6.67600
C         -0.82200       -9.64900       -5.57600
C          0.32800      -10.55100       -5.78900
C          0.86900      -11.15400       -4.72900
C          0.01700      -11.54000       -3.62000
C          0.72400      -11.47800       -2.37400
C          0.07400      -12.09500       -1.32900
C          0.59600      -11.91100       -0.01000
C         -0.52600      -11.79300        0.94600
C         -0.95600      -10.37500        1.03700
C         -2.42800      -10.28000        1.10800
C         -2.95000       -9.73400       -0.14900
C         -4.38900       -9.47600       -0.04400
C         -4.67500       -8.41700        0.94900
C         -4.53300       -7.07200        0.35200
O         -5.10100       -6.74700       -0.63700
O         -3.74300       -6.24800        1.04100
C         -3.58400       -4.92000        0.60100
C         -2.20700       -4.45700        0.97300
C         -2.03900       -2.98600        0.70900
O         -1.99500       -2.36300        1.93700
P         -1.46800       -0.89700        2.06600
O         -1.83400       -0.12000        0.88100
O         -1.92900       -0.37200        3.34800
O          0.10300       -0.98000        2.11100
C          0.72000       -1.89600        2.89600
C          2.15800       -1.55000        3.02000
N          3.06900       -2.49100        2.37600
C          2.87700       -3.84500        2.92000
C          2.81200       -2.53700        0.90700
C          4.42400       -2.07500        2.59600
O         -1.23000       -5.14300        0.23000
C         -0.27800       -5.84100        0.92300
O         -0.38400       -5.98300        2.09700
C          0.90200       -6.38900        0.16300
C          0.51500       -7.07500       -1.09000
C          0.41500       -6.06200       -2.16300
C          0.42600       -6.64600       -3.53300
C         -0.83400       -6.29900       -4.28000
C         -0.83200       -4.92300       -4.82200
C         -2.22100       -4.49300       -5.18500
C         -2.76100       -3.79400       -4.07600
C         -4.05100       -4.04700       -3.74700
C         -4.64900       -3.01300       -2.99900
C         -5.90500       -3.46900       -2.39500
C         -6.69900       -2.62200       -1.78900
C         -6.45700       -1.15700       -1.74800
C         -7.44800       -0.52000       -0.81600
C         -7.02500        0.85200       -0.44200
C         -7.86800        1.88400       -1.07000
C         -7.64800        3.23800       -0.44000
H         -6.10800       -8.39900       -6.77600
H         -4.94200       -7.74800       -7.90300
H         -4.97500       -7.17700       -6.25200
H         -4.28500       -9.94400       -7.12900
H         -4.31400       -9.35300       -5.47200
H         -2.65800       -8.05600       -7.53500
H         -2.51300       -8.01900       -5.77800
H         -1.26700       -9.73700       -7.60900
H         -2.33200      -10.67100       -6.57600
H         -1.30600       -9.91100       -4.65900
H         -0.46100       -8.64300       -5.53700
H          1.10100       -9.97400       -6.25200
H         -0.07300      -11.35400       -6.37100
H          1.61000      -10.49000       -4.33700
H          1.21600      -12.08800       -5.11900
H         -0.32700      -12.54100       -3.77600
H         -0.80800      -10.86000       -3.57500
H          0.86800      -10.44900       -2.12000
H          1.64700      -12.00100       -2.51600
H          0.07700      -13.14600       -1.52900
H         -0.88900      -11.63000       -1.30200
H          1.18700      -11.01900        0.02000
H          1.20700      -12.74900        0.25500
H         -0.20900      -12.13200        1.91000
H         -1.34600      -12.39200        0.60700
H         -0.61100       -9.84700        0.17300
H         -0.54000       -9.94500        1.92400
H         -2.84000      -11.25400        1.27100
H         -2.70300       -9.63400        1.91600
H         -2.44400       -8.81800       -0.37100
H         -2.78500      -10.44800       -0.92900
H         -4.88400      -10.37700        0.25500
H         -4.74400       -9.14800       -0.99900
H         -3.99000       -8.51000        1.76600
H         -5.68400       -8.53300        1.28700
H         -3.70500       -4.87500       -0.46100
H         -4.31800       -4.29100        1.06000
H         -2.08400       -4.65600        2.01700
H         -2.86600       -2.61700        0.13900
H         -1.14600       -2.79600        0.15000
H          0.62300       -2.86700        2.45600
H          0.26800       -1.89800        3.86600
H          2.30800       -0.58600        2.58000
H          2.38600       -1.57500        4.06500
H          3.55100       -4.52200        2.43800
H          1.87000       -4.16000        2.74500
H          3.07100       -3.83700        3.97200
H          3.48600       -3.23000        0.44900
H          2.96100       -1.56400        0.48800
H          1.80400       -2.85000        0.73100
H          5.09000       -2.76600        2.12300
H          4.62300       -2.05000        3.64700
H          4.56900       -1.09900        2.18200
H          1.55700       -5.57900       -0.08000
H          1.37800       -7.11300        0.79000
H          1.25600       -7.80300       -1.34800
H         -0.42400       -7.57100       -0.96300
H         -0.49800       -5.52000       -2.03300
H          1.27600       -5.43100       -2.08200
H          1.26800       -6.26200       -4.07000
H          0.48900       -7.71100       -3.44800
H         -0.94600       -6.98500       -5.09400
H         -1.64400       -6.36400       -3.58400
H         -0.44000       -4.25500       -4.08400
H         -0.22500       -4.90200       -5.70300
H         -2.82300       -5.35100       -5.40300
H         -2.20400       -3.86500       -6.05100
H         -2.68300       -2.74800       -4.28700
H         -2.19300       -4.13400       -3.23500
H         -4.08400       -4.94700       -3.16900
H         -4.60000       -4.13500       -4.66100
H         -4.85100       -2.18400       -3.64500
H         -3.97800       -2.72100       -2.21800
H         -6.16600       -4.46600       -2.44800
H         -7.53700       -2.99200       -1.31500
H         -6.57400       -0.74700       -2.72900
H         -5.46300       -0.96600       -1.40200
H         -7.52700       -1.11500        0.07000
H         -8.39300       -0.46000       -1.31400
H         -7.08900        0.95500        0.62100
H         -6.02200        0.99200       -0.78700
H         -8.89600        1.61000       -0.95500
H         -7.60400        1.94900       -2.10500
H         -7.90700        3.19500        0.59700
H         -8.26200        3.96400       -0.93100
H         -6.61900        3.51500       -0.54000
