54
1ln1_DLP_model_19_chainB.pdb
C         -5.14000       10.14900        2.52400
C         -3.75300       10.57700        2.82500
C         -3.22300        9.97100        4.05100
C         -2.44200       10.92700        4.84900
C         -1.01500       10.59100        4.84600
C         -0.28700       11.47500        5.75900
C          0.97200       11.77400        5.56800
C          1.75700       11.37500        4.40900
C          2.93600       12.19900        4.34100
C          3.86400       12.16900        3.40900
C          4.21900       11.02600        2.60700
C          4.48000       11.48500        1.24800
C          4.31500       10.41200        0.29500
C          2.90500        9.95500        0.24100
C          2.16700       10.59000       -0.83300
C          0.90900        9.87800       -1.02600
C          1.04300        8.85500       -2.09800
C          0.24900        7.65600       -1.75200
O         -0.93200        7.65100       -1.82800
O          0.96200        6.60100       -1.35700
C          0.31400        5.36800       -1.10700
C          1.33300        4.42400       -0.54900
C          0.76200        3.04200       -0.37000
O          1.71800        2.15700       -0.84500
P          1.76400        0.67400       -0.35700
O          0.44000        0.21400        0.04900
O          2.43400       -0.11900       -1.39000
O          2.67800        0.68600        0.91700
C          3.90900        1.25000        0.85000
C          4.81600        0.54200        1.79100
N          5.18700        1.32600        2.96900
C          5.92800        2.52900        2.56500
C          3.97700        1.75100        3.70900
C          6.00300        0.52700        3.84000
O          1.79800        4.85000        0.70600
C          3.06500        5.37300        0.79100
O          3.71800        5.55500       -0.18800
C          3.59000        5.69000        2.17100
C          2.88200        6.83500        2.78200
C          1.60800        6.34700        3.33600
C          1.11700        7.14200        4.49800
C         -0.38100        7.27400        4.46400
C         -1.10200        5.98500        4.59700
C         -2.46100        6.05400        3.99000
C         -2.56100        5.10500        2.94600
C         -3.05800        5.48400        1.73900
C         -3.20300        4.48900        0.75000
C         -3.57900        5.08000       -0.53500
C         -3.92300        4.36600       -1.56900
C         -4.04300        2.88300       -1.57700
C         -4.21000        2.39100       -2.97400
C         -4.07000        0.89900       -3.05700
C         -5.37400        0.21800       -3.06400
C         -5.23700       -1.27000       -3.25600
