54
1ln1_DLP_model_18_chainB.pdb
C         -8.21800        4.08900        7.27200
C         -7.87300        5.50600        7.06300
C         -6.51700        5.68400        6.51700
C         -6.08800        7.08400        6.63500
C         -5.21100        7.47800        5.53000
C         -4.87200        8.89400        5.64400
C         -4.92600        9.71900        4.64700
C         -5.43100        9.41900        3.32400
C         -5.60500       10.65600        2.62000
C         -6.09900       10.83100        1.42200
C         -5.99700        9.94000        0.30000
C         -7.26600        9.97100       -0.41700
C         -7.46100        8.75800       -1.16200
C         -7.71600        7.60600       -0.27300
C         -9.12900        7.44000        0.01000
C         -9.34500        6.14200        0.64000
C         -9.50100        5.08000       -0.38600
C         -8.67000        3.90800       -0.03100
O         -8.79000        3.35500        1.00900
O         -7.80200        3.50400       -0.96800
C         -6.95900        2.39900       -0.70100
C         -5.63500        2.59700       -1.38900
C         -4.81200        1.33800       -1.31900
O         -4.80700        0.77800       -2.57200
P         -3.70900       -0.25900       -2.96100
O         -3.48600       -1.19800       -1.86100
O         -4.09300       -0.85400       -4.24000
O         -2.37100        0.54000       -3.17800
C         -2.35700        1.65000       -3.96300
C         -0.95100        1.98700       -4.31500
N         -0.47800        3.26200       -3.80000
C         -1.30500        4.35900       -4.31400
C         -0.54000        3.29300       -2.32700
C          0.88500        3.46400       -4.20700
O         -4.88100        3.62000       -0.79500
C         -4.56500        4.71000       -1.55500
O         -5.09100        4.88500       -2.60600
C         -3.53200        5.66400       -1.01000
C         -3.91300        6.17800        0.31900
C         -3.38100        5.27800        1.35900
C         -3.87700        5.65700        2.71300
C         -3.17700        4.96500        3.83700
C         -3.30000        3.49500        3.82600
C         -4.59500        2.99300        4.30400
C         -4.84100        1.74700        3.68800
C         -6.09100        1.30500        3.51100
C         -6.26700        0.18300        2.69600
C         -7.68100       -0.06100        2.47800
C         -8.14200       -1.12700        1.92200
C         -7.33000       -2.26500        1.44500
C         -8.23000       -3.32200        0.90300
C         -7.46000       -4.42400        0.26100
C         -7.19300       -5.53400        1.19500
C         -6.61800       -6.73300        0.49700
