140
1ln1_DLP_model_44_chainB_pH74.pdb
C         -5.93600        7.76600        5.57000
C         -7.34300        7.33100        5.79300
C         -7.80800        6.42400        4.71600
C         -9.23300        6.06900        4.91100
C         -9.49600        4.72500        4.37000
C        -10.93700        4.40300        4.48500
C        -11.34400        3.31900        5.10900
C        -10.49300        2.61000        6.04600
C        -10.97100        1.25500        6.22300
C        -10.59700        0.67600        7.41800
C        -10.43800       -0.73900        7.48500
C         -9.41500       -1.04800        8.50600
C         -8.06800       -0.99400        7.90600
C         -7.41000        0.26700        8.28400
C         -5.99700        0.05400        8.53400
C         -5.37600        1.33100        8.78400
C         -3.92100        1.14100        8.80600
C         -3.35200        1.48500        7.48500
O         -3.10600        2.60900        7.20000
O         -3.11200        0.47000        6.66000
C         -2.36100        0.73000        5.48700
C         -2.67200       -0.33100        4.48100
C         -1.75100       -0.21800        3.28500
O         -0.98800       -1.36500        3.27500
P         -0.23800       -1.79900        1.97600
O          0.32000       -0.63500        1.28900
O          0.72800       -2.83600        2.34300
O         -1.31100       -2.44900        1.03200
C         -2.13700       -3.41200        1.52400
C         -2.67000       -4.21500        0.39700
N         -4.11600       -4.12600        0.23100
C         -4.80100       -4.53500        1.46700
C         -4.51100       -2.74000       -0.09200
C         -4.52100       -4.98900       -0.84300
O         -3.99300       -0.21600        4.02000
C         -4.82100       -1.29600        4.21300
O         -4.46800       -2.20000        4.89200
C         -6.16400       -1.30400        3.53400
C         -6.89600       -0.03800        3.70900
C         -6.42400        0.89500        2.67500
C         -7.30700        2.08200        2.51800
C         -6.55900        3.33900        2.86700
C         -5.91800        3.98200        1.69000
C         -4.93800        5.01700        2.13500
C         -3.65900        4.41700        2.27300
C         -2.97000        4.65400        3.42200
C         -1.60100        4.28400        3.37800
C         -1.00100        4.35400        4.71900
C          0.28700        4.21800        4.90400
C          1.25500        3.99200        3.78800
C          2.63700        3.88800        4.33300
C          3.54500        3.24700        3.33600
C          4.80600        3.99300        3.17500
C          5.70100        3.35300        2.13900
H         -5.63400        8.41700        6.36300
H         -5.86700        8.28500        4.63700
H         -5.29600        6.90800        5.55000
H         -7.40400        6.81800        6.73000
H         -7.96700        8.20000        5.79300
H         -7.69400        6.91300        3.77100
H         -7.22300        5.52800        4.74300
H         -9.46100        6.08100        5.95600
H         -9.84600        6.78000        4.39700
H         -9.20800        4.69600        3.34000
H         -8.93100        4.00700        4.92700
H        -11.31400        4.33800        3.48600
H        -11.30200        5.18700        5.11500
H        -11.60500        2.61400        4.34700
H        -12.11400        3.70100        5.74700
H        -10.50600        3.11600        6.98900
H         -9.49500        2.58200        5.66200
H        -10.58600        0.65600        5.42500
H        -12.04000        1.30300        6.22600
H        -11.34000        0.94200        8.14000
H         -9.60900        1.05100        7.58500
H        -10.12200       -1.11200        6.53300
H        -11.36700       -1.20000        7.74600
H         -9.59000       -2.02900        8.89600
H         -9.47700       -0.32600        9.29400
H         -7.48700       -1.81900        8.26100
H         -8.15100       -1.04600        6.84100
H         -7.87000        0.65100        9.17100
H         -7.51500        0.96400        7.47900
H         -5.54500       -0.40500        7.68000
H         -5.86800       -0.58700        9.38100
H         -5.70500        1.71400        9.72700
H         -5.64500        2.02700        8.01700
H         -3.49100        1.77400        9.55400
H         -3.70100        0.11800        9.03000
H         -2.62600        1.68900        5.09400
H         -1.31500        0.72700        5.71300
H         -2.53600       -1.27500        4.96600
H         -2.32200       -0.14500        2.38300
H         -1.13800        0.65700        3.34800
H         -1.59100       -4.04700        2.19000
H         -2.94600       -2.95600        2.05700
H         -2.20700       -3.87500       -0.50600
H         -2.44800       -5.23800        0.61700
H         -5.86000       -4.46400        1.32800
H         -4.50300       -3.89300        2.26900
H         -4.53900       -5.54500        1.70200
H         -4.01900       -2.42900       -0.99000
H         -4.22900       -2.09200        0.71200
H         -5.57100       -2.69400       -0.23100
H         -4.02500       -4.69400       -1.74400
H         -5.58000       -4.91600       -0.97900
H         -4.26000       -5.99900       -0.60600
H         -6.01800       -1.47300        2.48800
H         -6.74800       -2.08000        3.98200
H         -7.94700       -0.20600        3.59700
H         -6.72300        0.36400        4.68500
H         -5.44400        1.23200        2.94100
H         -6.42600        0.36900        1.74300
H         -8.15200        1.98200        3.16700
H         -7.63200        2.14200        1.50000
H         -7.24600        4.03400        3.30300
H         -5.77800        3.06700        3.54700
H         -5.40800        3.23700        1.11500
H         -6.67400        4.45100        1.09500
H         -5.24700        5.42200        3.07600
H         -4.89100        5.80400        1.41100
H         -3.05400        4.76300        1.46100
H         -3.85400        3.36500        2.28700
H         -3.43900        4.10400        4.21100
H         -2.99300        5.71300        3.57600
H         -1.07800        4.95000        2.72400
H         -1.52700        3.27800        3.02000
H         -1.61200        4.51500        5.53500
H          0.65200        4.26900        5.86800
H          1.00500        3.08500        3.27900
H          1.20500        4.81400        3.10500
H          3.00000        4.86800        4.56100
H          2.61600        3.28700        5.21800
H          3.77100        2.25400        3.66400
H          3.04400        3.23900        2.39100
H          4.58100        4.99400        2.87000
H          5.32100        3.98700        4.11300
H          5.20400        3.34900        1.19200
H          5.92200        2.34700        2.43000
H          6.61200        3.91000        2.06100
