136
1ln1_DLP_model_11_chainB_pH74.pdb
C          1.30400       -3.05000       12.30900
C          0.35500       -1.99400       11.83500
C         -0.78200       -1.85800       12.73100
C         -1.68800       -0.77100       12.35000
C         -2.93700       -0.85600       13.09800
C         -3.91900        0.14500       12.64200
C         -5.15100       -0.19600       12.41600
C         -5.57300       -1.56700       12.42700
C         -6.73600       -1.73600       11.63100
C         -7.09900       -3.02900       11.38300
C         -8.17500       -3.29300       10.51700
C         -8.14900       -4.70700       10.12200
C         -7.22700       -4.92400        9.00100
C         -6.03700       -5.62900        9.46200
C         -5.24000       -6.11300        8.35000
C         -3.95700       -6.54500        8.84700
C         -3.25000       -7.28400        7.78700
C         -2.40400       -6.35200        7.02000
O         -1.32200       -6.04700        7.39800
O         -2.91200       -5.89900        5.87600
C         -2.07500       -5.11800        5.04100
C         -2.91100       -4.13100        4.29100
C         -2.06000       -3.35800        3.31800
O         -2.22100       -3.93700        2.08700
P         -1.87200       -3.11500        0.80700
O         -0.54800       -2.51200        0.94800
O         -2.06800       -3.98500       -0.35200
O         -2.92100       -1.94100        0.70900
C         -4.25200       -2.24500        0.65600
C         -4.98800       -1.10400        0.08500
N         -5.75000       -0.31900        1.05100
C         -4.85000        0.22900        2.09300
C         -6.75700       -1.17000        1.71000
C         -6.39600        0.76900        0.38100
O         -3.52400       -3.21300        5.15800
C         -4.88900       -3.12300        5.10800
O         -5.51800       -3.95400        4.53800
C         -5.55500       -1.95500        5.78300
C         -5.09100       -1.77600        7.16200
C         -3.86100       -0.96600        7.11900
C         -3.46400       -0.47300        8.45600
C         -2.33300        0.48900        8.31300
C         -1.02600       -0.13500        8.58500
C         -0.33900       -0.61900        7.39500
C          0.90900       -1.17800        7.79000
C          1.41000       -2.29600        7.40800
C          1.30200       -2.87900        6.12000
C          1.65500       -4.29200        6.24400
C          2.25400       -5.00700        5.34100
C          2.67000       -4.53300        4.00600
C          3.76300       -5.39200        3.47800
C          4.08100       -5.03500        2.07000
C          5.36900       -5.59200        1.62500
C          5.68200       -5.18700        0.21200
H          2.12600       -3.12300       11.62800
H          0.79600       -3.99100       12.35700
H          1.66800       -2.79200       13.28100
H          0.00000       -2.25800       10.86100
H          0.87700       -1.06000       11.81100
H         -0.41600       -1.66600       13.71800
H         -1.33900       -2.77000       12.68000
H         -1.90000       -0.84100       11.30300
H         -1.21700        0.16400       12.57200
H         -2.73100       -0.69200       14.13500
H         -3.35500       -1.82800       12.93800
H         -3.62500        1.12400       12.50100
H         -5.84700        0.54100       12.22300
H         -4.78800       -2.18000       12.03700
H         -5.79800       -1.85100       13.43400
H         -7.27200       -0.93400       11.26400
H         -6.58700       -3.80700       11.82800
H         -9.09600       -3.07900       11.01700
H         -8.09100       -2.67700        9.64600
H         -7.83100       -5.29700       10.95600
H         -9.13300       -4.99300        9.81400
H         -7.71500       -5.50800        8.24900
H         -6.93900       -3.97700        8.59600
H         -5.44300       -4.96100       10.05000
H         -6.35000       -6.47200       10.04200
H         -5.73900       -6.93500        7.88200
H         -5.10600       -5.33000        7.63300
H         -3.37900       -5.69200        9.13500
H         -4.09600       -7.18100        9.69600
H         -2.63700       -8.04200        8.22800
H         -3.96400       -7.74000        7.13300
H         -1.35800       -4.59700        5.64000
H         -1.56300       -5.75400        4.34900
H         -3.66400       -4.68700        3.77200
H         -2.37600       -2.33600        3.28600
H         -1.03200       -3.37800        3.61500
H         -4.39800       -3.10800        0.04100
H         -4.61300       -2.44800        1.64200
H         -5.67000       -1.48200       -0.64800
H         -4.25000       -0.44500       -0.32200
H         -4.11000        0.85100        1.63400
H         -4.36900       -0.57600        2.60800
H         -5.42100        0.80800        2.78900
H         -7.41800       -1.57600        0.97300
H         -7.31800       -0.58400        2.40800
H         -6.26600       -1.96800        2.22700
H         -7.04900        0.38500       -0.37500
H         -5.65800        1.39800       -0.07100
H         -6.96400        1.33700        1.08800
H         -6.61200       -2.12000        5.79300
H         -5.30500       -1.07100        5.23400
H         -4.88500       -2.72900        7.60400
H         -5.84100       -1.28800        7.74900
H         -4.02500       -0.12500        6.47800
H         -3.07200       -1.59000        6.75300
H         -3.15600       -1.29800        9.06400
H         -4.29500        0.01800        8.91700
H         -2.47900        1.29500        9.00100
H         -2.32500        0.83400        7.30000
H         -0.40000        0.59000        9.06300
H         -1.21400       -0.98900        9.20200
H         -0.93400       -1.36700        6.91400
H         -0.17900        0.18800        6.71000
H          0.85300       -1.25100        8.85600
H          1.56700       -0.51000        7.27500
H          2.46200       -2.20200        7.58200
H          0.78000       -2.96500        7.95500
H          0.29900       -2.78400        5.75900
H          1.95500       -2.38800        5.42900
H          1.40600       -4.76300        7.12800
H          2.45700       -5.99100        5.57700
H          1.83400       -4.57400        3.33900
H          3.02300       -3.52600        4.08500
H          4.63700       -5.25700        4.08000
H          3.44300       -6.41300        3.50900
H          3.30600       -5.41300        1.43700
H          4.15000       -3.96900        2.01200
H          6.14400       -5.23400        2.27000
H          5.30600       -6.65900        1.66400
H          5.74900       -4.12100        0.15300
H          4.90500       -5.53200       -0.43800
H          6.61400       -5.62000       -0.08500
