54
1ln1_DLP_model_37_chainB.pdb
C         10.03400        5.26300       -2.12100
C          9.24500        6.13300       -1.20400
C          9.62900        5.95800        0.17600
C          9.32500        7.12000        1.02900
C          9.21700        6.67300        2.40900
C          9.73500        7.63700        3.37600
C         10.10500        7.24900        4.57400
C         10.25500        5.86300        4.87000
C         10.57500        5.60000        6.22300
C         11.04000        4.39200        6.45500
C         10.96000        3.57700        7.55600
C         11.28200        2.20400        7.15100
C         10.14100        1.49600        6.54500
C         10.08100        1.65800        5.08600
C         10.57500        0.51200        4.35900
C         10.25300        0.65900        2.95600
C          9.80600       -0.62800        2.40300
C          8.49200       -0.47100        1.74400
O          8.40500       -0.11600        0.62300
O          7.42800       -0.78200        2.48600
C          6.14900       -0.78200        1.87800
C          5.12100       -0.52400        2.93200
C          3.73400       -0.56800        2.34700
O          3.18800       -1.77100        2.68900
P          1.63700       -1.96000        2.69000
O          1.07000       -1.45300        1.44300
O          1.36000       -3.35600        2.98400
O          1.06700       -1.09100        3.86800
C          1.58800       -1.19200        5.12600
C          0.62100       -0.65600        6.10400
N          0.97400        0.62700        6.70100
C          2.23300        0.52000        7.44500
C          1.13900        1.66300        5.65000
C         -0.06800        1.04700        7.58700
O          5.30100        0.74300        3.50800
C          5.50900        0.81300        4.85700
O          5.68400       -0.17900        5.48000
C          5.49800        2.16400        5.52000
C          6.30000        3.16400        4.79800
C          5.48100        3.70300        3.70100
C          6.14300        4.75200        2.92200
C          5.21400        5.27100        1.88400
C          5.59800        4.93900        0.52300
C          4.89700        3.81600       -0.02900
C          5.57200        3.44000       -1.18500
C          5.85000        2.33500       -1.62300
C          5.24700        1.11400       -1.41100
C          5.90700        0.19600       -2.29600
C          5.52800       -0.94200       -2.67200
C          4.37900       -1.68600       -2.23300
C          4.16300       -2.83200       -3.13000
C          2.72400       -2.99600       -3.44600
C          2.52000       -3.75200       -4.67600
C          1.07400       -3.80200       -5.04400
