54
1ln1_DLP_model_38_chainB.pdb
C        -11.02400       -2.46200       -1.56800
C        -11.14500       -3.49500       -0.51900
C         -9.88900       -4.21600       -0.29800
C        -10.15000       -5.51900        0.32200
C         -9.19200       -5.80900        1.38200
C         -9.57400       -7.06100        2.02500
C         -9.34000       -7.30900        3.26200
C         -8.63300       -6.42100        4.13000
C         -9.18200       -6.49500        5.41600
C         -9.29900       -5.48500        6.21600
C         -8.55700       -5.22100        7.38300
C         -8.72400       -3.81400        7.76900
C         -8.37900       -2.94700        6.64200
C         -8.42300       -1.52700        6.98500
C         -9.53700       -0.88300        6.34100
C         -9.18900       -0.43600        5.00300
C         -8.67000        0.94100        5.01100
C         -7.76700        1.11600        3.85700
O         -8.18100        1.17500        2.75300
O         -6.47900        1.22200        4.16300
C         -5.54500        1.35600        3.11200
C         -4.25200        0.78500        3.60300
C         -3.13900        1.06400        2.62700
O         -2.19800        1.79600        3.33200
P         -0.74400        1.93800        2.79100
O         -0.75600        2.02400        1.32500
O         -0.10900        3.04400        3.50100
O          0.00400        0.62300        3.18400
C         -0.12500        0.13800        4.44300
C          1.07600       -0.65100        4.77300
N          0.79300       -2.01700        5.17000
C         -0.05600       -2.03300        6.36800
C          0.08800       -2.73200        4.07600
C          2.02600       -2.69700        5.43700
O         -4.35500       -0.60500        3.76000
C         -4.16200       -1.10300        5.02200
O         -3.99900       -0.36900        5.93500
C         -4.15500       -2.58300        5.22200
C         -5.23000       -3.25000        4.47600
C         -4.70500       -3.58200        3.14600
C         -5.75000       -4.10800        2.25800
C         -5.20700       -4.24100        0.87100
C         -6.03700       -3.58600       -0.13500
C         -5.49700       -2.30400       -0.56000
C         -6.59900       -1.45800       -0.76000
C         -6.71600       -0.24500       -0.70900
C         -5.80400        0.77700       -0.88500
C         -6.57200        1.99500       -0.89200
C         -6.17000        3.18200       -1.01900
C         -4.80300        3.66600       -1.10600
C         -4.85200        5.11900       -1.39200
C         -3.51200        5.65200       -1.74600
C         -3.38400        5.89000       -3.17400
C         -2.17300        6.71800       -3.49100
