140
1ln1_DLP_model_21_chainB_pH74.pdb
C         -8.62200       -8.19400       -1.28500
C         -9.59700       -7.78200       -0.25100
C         -9.01900       -6.78200        0.67500
C         -9.97000       -6.49400        1.77100
C         -9.75200       -5.12700        2.25400
C        -10.74800       -4.78600        3.29200
C        -11.30200       -3.60300        3.27500
C        -11.26500       -2.82800        2.06100
C        -11.48600       -1.44900        2.35700
C        -11.81700       -0.72000        1.25300
C        -11.70800        0.69400        1.30200
C        -11.77000        1.22900       -0.06500
C        -10.46100        1.05800       -0.72100
C        -10.62500        0.22000       -1.90600
C         -9.34400        0.00900       -2.56400
C         -9.41300       -1.20900       -3.32900
C         -8.40900       -1.17200       -4.39800
C         -7.12300       -1.68100       -3.89200
O         -6.87100       -2.84000       -3.88000
O         -6.26100       -0.75900       -3.48800
C         -4.96900       -1.17400       -3.11200
C         -4.44000       -0.21600       -2.08600
C         -2.97900       -0.45900       -1.85600
O         -2.29600        0.49200       -2.56000
P         -0.83100        0.85300       -2.14900
O         -0.01800       -0.36100       -2.08500
O         -0.36400        1.89100       -3.06300
O         -0.88000        1.46900       -0.70100
C         -1.69600        2.52500       -0.44100
C         -1.18200        3.26200        0.73900
N         -2.13000        3.40000        1.83400
C         -2.52000        2.06900        2.35700
C         -3.35000        4.08700        1.37500
C         -1.53400        4.15800        2.89400
O         -5.09600       -0.36800       -0.85400
C         -5.73900        0.72300       -0.33300
O         -5.94200        1.68100       -1.00500
C         -6.15900        0.66600        1.11500
C         -7.02500       -0.49100        1.40300
C         -6.17600       -1.69200        1.45700
C         -6.74200       -2.77600        2.30000
C         -6.54100       -4.10300        1.63600
C         -5.14000       -4.53300        1.62900
C         -4.91700       -5.55900        0.58800
C         -4.07900       -4.98700       -0.39300
C         -4.37900       -5.27400       -1.67800
C         -3.46100       -4.75400       -2.60700
C         -3.86400       -5.15200       -3.95700
C         -3.07900       -4.98700       -4.97300
C         -1.73900       -4.36700       -4.87200
C         -0.96200       -4.71200       -6.09000
C          0.40700       -4.14900       -6.01500
C          1.40800       -5.15000       -6.40100
C          2.78700       -4.55700       -6.47700
H         -9.07400       -8.91500       -1.93400
H         -7.76400       -8.62600       -0.81400
H         -8.32400       -7.33900       -1.85500
H         -9.89400       -8.64400        0.31000
H        -10.43800       -7.33700       -0.74200
H         -8.81400       -5.87900        0.13800
H         -8.11400       -7.17200        1.09100
H         -9.81200       -7.18600        2.57200
H        -10.97300       -6.59200        1.41100
H         -9.84700       -4.44400        1.43600
H         -8.77100       -5.05900        2.67600
H        -10.26200       -4.89100        4.23900
H        -11.56100       -5.45300        3.09500
H        -12.33300       -3.73700        3.53000
H        -10.70800       -3.03400        3.95900
H        -10.30800       -2.94200        1.59600
H        -12.03200       -3.17300        1.40000
H        -12.28300       -1.37500        3.06800
H        -10.57100       -1.05100        2.74500
H        -11.18700       -1.05500        0.45600
H        -12.86700       -0.89200        1.13800
H        -12.51300        1.09600        1.88100
H        -10.77800        0.96800        1.75400
H        -12.51800        0.70300       -0.62000
H        -12.01700        2.26900       -0.02900
H        -10.07700        2.01400       -1.00900
H         -9.77600        0.59300       -0.04300
H        -11.03100       -0.72600       -1.61400
H        -11.28700        0.71200       -2.58800
H         -9.13400        0.83200       -3.21500
H         -8.56600       -0.06300       -1.83300
H         -9.22100       -2.04400       -2.68800
H        -10.38800       -1.30600       -3.75900
H         -8.73600       -1.78200       -5.21400
H         -8.28400       -0.16300       -4.73000
H         -4.32700       -1.17600       -3.96800
H         -5.00600       -2.16300       -2.70500
H         -4.60800        0.77100       -2.46300
H         -2.75300       -0.37600       -0.81300
H         -2.70200       -1.44100       -2.17700
H         -2.68500        2.17100       -0.23800
H         -1.72000        3.17700       -1.28900
H         -0.89700        4.24300        0.42000
H         -0.36400        2.68700        1.12000
H         -2.96700        1.49400        1.57300
H         -3.22300        2.19100        3.15400
H         -1.65200        1.56100        2.72200
H         -3.79900        3.52500        0.58300
H         -3.09700        5.06400        1.02000
H         -4.04000        4.17100        2.18900
H         -1.24900        5.12200        2.52700
H         -0.66900        3.64400        3.25700
H         -2.24000        4.27400        3.69000
H         -6.69200        1.56200        1.35400
H         -5.27400        0.56700        1.70800
H         -7.75700       -0.59800        0.63000
H         -7.53300       -0.35300        2.33500
H         -5.22200       -1.41600        1.85500
H         -6.10300       -2.07300        0.46000
H         -7.78900       -2.60500        2.44000
H         -6.24400       -2.77900        3.24700
H         -7.12000       -4.83600        2.15700
H         -6.85000       -4.00100        0.61700
H         -4.51400       -3.68800        1.43100
H         -4.90300       -4.95300        2.58400
H         -4.44500       -6.41900        1.01600
H         -5.84600       -5.87000        0.15800
H         -4.12100       -3.92400       -0.27800
H         -3.11200       -5.41200       -0.22400
H         -4.40400       -6.33800       -1.78900
H         -5.32400       -4.81700       -1.88600
H         -3.44800       -3.68600       -2.53800
H         -2.48300       -5.13400       -2.39700
H         -4.79500       -5.57400       -4.10200
H         -3.40400       -5.30400       -5.90000
H         -1.83900       -3.30400       -4.79700
H         -1.23400       -4.73100       -4.00200
H         -0.90000       -5.77700       -6.17700
H         -1.45800       -4.29800       -6.94300
H          0.47700       -3.31100       -6.67600
H          0.59700       -3.84700       -5.00600
H          1.40900       -5.93700       -5.67600
H          1.15100       -5.52200       -7.37100
H          3.06600       -4.17800       -5.51600
H          2.79400       -3.76000       -7.19100
H          3.48300       -5.31100       -6.77900
