54
1ln1_DLP_model_43_chainB.pdb
C         10.79300        0.84800        7.53100
C         11.59600        2.03900        7.19100
C         11.29300        2.57100        5.84900
C         12.31900        3.53700        5.43200
C         11.80500        4.52700        4.49200
C         12.75000        5.64800        4.41400
C         12.36500        6.90000        4.50300
C         10.98800        7.30300        4.43800
C         10.81700        8.66700        4.79700
C          9.53100        9.08100        4.87200
C          9.10700       10.24000        5.49500
C          7.87000       10.06700        6.27600
C          7.11300        8.87200        5.86400
C          6.17600        8.38700        6.88500
C          6.84300        7.69500        7.97300
C          6.54000        6.26500        7.98900
C          5.10800        5.96300        8.17500
C          4.77900        4.72500        7.44800
O          5.21200        3.67800        7.76200
O          3.93800        4.87500        6.42200
C          3.61000        3.77100        5.62200
C          3.26900        4.25700        4.24200
C          2.68500        3.14800        3.42900
O          1.36200        3.42400        3.27900
P          0.54400        2.78600        2.11200
O          0.86300        1.36600        2.00500
O         -0.85900        3.11900        2.33100
O          1.00400        3.48400        0.78800
C          1.13600        4.83200        0.70900
C          1.01400        5.26500       -0.70000
N          2.10600        6.08600       -1.19700
C          2.18800        7.34100       -0.44300
C          3.40200        5.36200       -1.04500
C          1.89900        6.36900       -2.58500
O          4.39400        4.73700        3.56100
C          4.46600        6.06500        3.26100
O          3.70500        6.83700        3.74000
C          5.52800        6.50600        2.29300
C          6.88300        6.08200        2.69500
C          7.08900        4.67500        2.29400
C          8.49000        4.21100        2.38000
C          8.62100        3.00100        3.24900
C          8.30600        1.72800        2.58600
C          8.10000        0.61200        3.54100
C          6.72000        0.45700        3.75200
C          6.23000        0.44300        4.99900
C          4.99500       -0.17800        5.14600
C          4.46000       -0.00200        6.49400
C          3.38400       -0.63000        6.86700
C          2.68100       -1.58900        6.00300
C          1.54200       -2.21700        6.69700
C          0.52400       -2.65200        5.72800
C         -0.15200       -3.87900        6.13100
C         -1.25600       -4.25300        5.18500
