54
1ln1_DLP_model_14_chainB.pdb
C         -3.61900        6.43900        6.89800
C         -3.12400        7.81200        6.68500
C         -1.83400        7.83300        5.96700
C         -1.19700        9.16100        6.06200
C         -0.25400        9.40100        4.95000
C          0.25100       10.76800        5.00200
C          0.39100       11.53000        3.93800
C          0.23500       11.10500        2.56400
C         -1.10200       11.32700        2.16300
C         -1.49300       11.87800        1.07100
C         -1.03400       11.71300       -0.25900
C         -2.21100       11.86100       -1.10200
C         -2.58500       10.64100       -1.83000
C         -3.00400        9.52900       -0.95400
C         -4.43800        9.47800       -0.71200
C         -4.72800        8.38200        0.20000
C         -5.51300        7.31800       -0.44800
C         -5.00000        6.00300       -0.03800
O         -5.34900        5.50100        0.97700
O         -4.15100        5.41900       -0.87700
C         -3.63600        4.14400       -0.57600
C         -2.37400        3.94900       -1.33000
C         -1.87200        2.54400       -1.16600
O         -1.65700        2.05600       -2.42100
P         -0.88600        0.73200       -2.65700
O         -0.70000        0.00200       -1.41500
O         -1.56500        0.00800       -3.72600
O          0.53900        1.14500       -3.16700
C          0.76400        2.33100       -3.74900
C          2.11100        2.33200       -4.35800
N          2.90700        3.51000       -4.07800
C          3.04300        3.71200       -2.62700
C          2.26400        4.70500       -4.64100
C          4.20300        3.35800       -4.65900
O         -1.36200        4.81400       -0.90100
C         -0.83200        5.70100       -1.79700
O         -1.31500        5.80600       -2.87500
C          0.37400        6.50000       -1.38800
C          0.21900        7.25600       -0.14000
C          0.24000        6.34600        1.01900
C          1.07200        6.81700        2.15200
C          0.60100        6.27500        3.46800
C          0.64600        4.81400        3.58400
C         -0.40600        4.29900        4.49100
C         -1.05500        3.23500        3.87200
C         -2.33400        3.27100        3.53000
C         -2.90700        2.06300        3.16800
C         -4.25700        2.21500        2.66000
C         -4.94600        1.18500        2.27000
C         -4.42500       -0.19700        2.29300
C         -5.41800       -1.14300        1.73800
C         -4.76000       -2.39200        1.29500
C         -5.35700       -3.58700        1.87900
C         -4.71100       -4.84600        1.39400
