136
1ln1_DLP_model_24_chainB_pH74.pdb
C         -7.46100       -2.77500       -9.83300
C         -7.52100       -1.34600      -10.20300
C         -6.94000       -0.44900       -9.19500
C         -7.39600        0.93900       -9.37200
C         -6.35300        1.78300       -9.94800
C         -6.86000        3.13300      -10.20000
C         -6.10900        4.01400      -10.80600
C         -4.89600        3.61900      -11.47900
C         -3.95700        4.68800      -11.57400
C         -2.90000        4.45200      -12.40800
C         -1.56600        4.65500      -11.98100
C         -0.67300        3.89200      -12.86800
C          0.27100        3.05500      -12.14100
C         -0.36700        1.91400      -11.43500
C         -0.50000        0.74400      -12.29000
C         -0.81800       -0.45000      -11.50900
C          0.36600       -0.96800      -10.78700
C         -0.01600       -1.47000       -9.45100
O         -0.94200       -2.18000       -9.28400
O          0.77000       -1.08400       -8.45300
C          0.39600       -1.32200       -7.11200
C          0.77400       -0.11100       -6.30900
C          0.59200       -0.32800       -4.82300
O          1.84100       -0.54500       -4.28800
P          2.13200       -0.43000       -2.75900
O          1.10700       -1.12700       -1.99100
O          3.50600       -0.88600       -2.54700
O          2.06600        1.09500       -2.37600
C          2.68000        2.03400       -3.13300
C          2.86500        3.29000       -2.36600
N          2.18700        4.45800       -2.91200
C          0.73200        4.20300       -3.03700
C          2.72300        4.77200       -4.24300
C          2.38900        5.58300       -2.04300
O          0.00900        0.97900       -6.70800
C          0.64600        2.13000       -7.06800
O          1.78400        2.30600       -6.78400
C         -0.15100        3.14100       -7.83800
C         -1.34100        3.66000       -7.13300
C         -2.31600        2.56300       -6.95100
C         -3.73300        2.97100       -6.78300
C         -4.60200        1.74000       -6.65600
C         -4.87400        1.30300       -5.27200
C         -4.59300       -0.10200       -4.88300
C         -4.76000       -1.06400       -5.88900
C         -4.03800       -2.13400       -6.07000
C         -3.12300       -2.75300       -5.20000
C         -2.55600       -3.90400       -5.89900
C         -1.81500       -4.83000       -5.39100
C         -1.36900       -4.95100       -4.00100
C         -0.53600       -6.17200       -3.84600
C          0.05100       -6.29400       -2.48500
C         -0.64600       -7.28200       -1.65300
C          0.05900       -7.53800       -0.35300
H         -7.90000       -3.36400      -10.61100
H         -7.99900       -2.93000       -8.92100
H         -6.44000       -3.06600       -9.69900
H         -8.54700       -1.07600      -10.34400
H         -6.94200       -1.23000      -11.09500
H         -5.87400       -0.47700       -9.28000
H         -7.25700       -0.78300       -8.22900
H         -8.24500        0.94400      -10.02300
H         -7.64800        1.33200       -8.40900
H         -5.53000        1.83800       -9.26700
H         -6.03800        1.35500      -10.87700
H         -7.81300        3.39000       -9.89800
H         -6.38800        5.00800      -10.80300
H         -4.44700        2.81400      -10.93500
H         -5.15500        3.32200      -12.47400
H         -4.47400        5.55400      -11.93000
H         -3.54500        4.81400      -10.59500
H         -2.97100        3.42600      -12.70300
H         -3.02200        5.20800      -13.15600
H         -1.32400        5.69600      -12.03300
H         -1.44900        4.32500      -10.97000
H         -1.27100        3.26500      -13.49700
H         -0.10400        4.59900      -13.43500
H          0.77400        3.66200      -11.41700
H          0.94400        2.64100      -12.86300
H          0.23200        1.65500      -10.58700
H         -1.34900        2.21800      -11.13900
H         -1.28400        0.91700      -12.99800
H          0.43200        0.58300      -12.79000
H         -1.18000       -1.21000      -12.17000
H         -1.55900       -0.18500      -10.78400
H          1.08200       -0.18000      -10.67500
H          0.78700       -1.77400      -11.35000
H          0.91100       -2.18200       -6.73800
H         -0.65600       -1.50300       -7.04400
H          1.81200        0.07600       -6.49000
H         -0.03400       -1.17900       -4.65100
H          0.12700        0.52200       -4.36900
H          2.08100        2.23500       -3.99700
H          3.64100        1.66500       -3.42400
H          3.91300        3.50300       -2.32900
H          2.42800        3.11700       -1.40500
H          0.57100        3.36600       -3.68300
H          0.25200        5.06700       -3.44700
H          0.32300        3.99200       -2.07100
H          2.57400        3.93600       -4.89400
H          3.76900        4.98200       -4.16600
H          2.21600        5.62700       -4.63900
H          1.89000        6.43900       -2.44600
H          3.43600        5.78600       -1.96000
H          1.99100        5.36200       -1.07500
H          0.48900        3.96800       -8.06300
H         -0.51300        2.63800       -8.71000
H         -1.78700        4.44200       -7.71100
H         -1.05300        4.04600       -6.17800
H         -2.02900        2.01200       -6.08000
H         -2.28500        1.99700       -7.85900
H         -4.04300        3.54000       -7.63400
H         -3.82900        3.56700       -5.90000
H         -4.11400        0.93600       -7.16700
H         -5.55000        2.00100       -7.07700
H         -5.91400        1.47500       -5.09000
H         -4.18000        1.87000       -4.68700
H         -3.57800       -0.15200       -4.54800
H         -5.31500       -0.34300       -4.13100
H         -5.53400       -0.90900       -6.55400
H         -4.15500       -2.59400       -6.98600
H         -3.62500       -3.07700       -4.31200
H         -2.35100       -2.06800       -4.91800
H         -2.77100       -3.98500       -6.90500
H         -1.50100       -5.57000       -6.03800
H         -2.22200       -5.01900       -3.35900
H         -0.78900       -4.09100       -3.73900
H          0.26000       -6.13700       -4.56100
H         -1.17000       -7.01900       -4.00300
H         -0.00400       -5.34100       -2.00200
H          1.06300       -6.62400       -2.59800
H         -0.71100       -8.20200       -2.19500
H         -1.61500       -6.89000       -1.42600
H          1.03500       -7.93200       -0.54800
H         -0.50200       -8.24300        0.22400
H          0.14700       -6.62100        0.19200
