136
1ln1_DLP_model_9_chainB_pH74.pdb
C          2.49700       -0.91800       11.43400
C          1.26200       -0.21800       11.84200
C          0.99900        0.99400       11.04500
C          0.07200        1.90200       11.75000
C         -1.03800        2.35400       10.90200
C         -1.89400        3.30100       11.64300
C         -3.20900        3.21400       11.69500
C         -4.01900        2.09200       11.23000
C         -4.94700        2.48800       10.16300
C         -6.07600        1.82000        9.86400
C         -6.52900        0.68300       10.58100
C         -7.45800       -0.16500        9.82800
C         -6.88500       -1.06300        8.81300
C         -5.43400       -1.34300        8.93100
C         -5.14300       -2.71500        9.33200
C         -3.75200       -3.03000        9.03600
C         -3.64400       -4.10900        8.02600
C         -2.54700       -3.82800        7.07100
O         -1.41400       -3.95000        7.38000
O         -2.92200       -3.46100        5.84200
C         -1.93000       -3.13600        4.87500
C         -2.47200       -2.05100        3.99700
C         -1.49500       -1.67300        2.89700
O         -1.97900       -2.21900        1.72300
P         -1.42900       -1.77700        0.33000
O          0.01800       -1.59200        0.38200
O         -1.90700       -2.74300       -0.66000
O         -2.07900       -0.38600       -0.00400
C         -3.38500       -0.13500        0.28000
C         -3.85800        1.02600       -0.51000
N         -4.25800        2.18600        0.27600
C         -5.39700        1.84300        1.13300
C         -3.14900        2.63300        1.14100
C         -4.62300        3.26200       -0.59800
O         -2.76100       -0.91900        4.75600
C         -4.03200       -0.40800        4.69100
O         -4.78100       -0.76600        3.84400
C         -4.43800        0.59400        5.73500
C         -3.57100        1.78100        5.81400
C         -2.25200        1.39900        6.36300
C         -1.48100        2.54000        6.92800
C         -0.14000        2.07500        7.45300
C          0.96400        2.07900        6.44800
C          1.37100        0.76100        5.94900
C          1.87200       -0.09400        6.99100
C          2.04000       -1.39400        6.86700
C          2.06500       -2.07300        5.60500
C          1.85500       -3.51100        5.80200
C          2.25900       -4.44300        4.97400
C          3.03400       -4.20000        3.74000
C          3.53700       -5.47100        3.16000
C          3.78900       -5.33000        1.69700
C          4.84300       -6.23100        1.21200
C          5.02100       -6.14300       -0.28200
H          2.63400       -1.78500       12.04500
H          3.33400       -0.26200       11.55200
H          2.41700       -1.21300       10.40900
H          0.43600       -0.88800       11.72700
H          1.38800        0.08800       12.86000
H          1.92300        1.50500       10.87000
H          0.55000        0.70100       10.11900
H         -0.33200        1.38800       12.59700
H          0.62900        2.76800       12.04000
H         -0.64400        2.83900       10.03300
H         -1.62400        1.50600       10.61400
H         -1.43700        4.07600       12.14900
H         -3.71400        4.01600       12.10400
H         -3.36900        1.32800       10.85700
H         -4.59800        1.73800       12.05700
H         -4.72000        3.32900        9.60900
H         -6.64400        2.15300        9.06900
H         -5.67800        0.09300       10.85000
H         -7.06300        1.04700       11.43300
H         -7.98200       -0.77300       10.53500
H         -8.06600        0.52000        9.27500
H         -7.40400       -1.99700        8.87300
H         -7.00300       -0.55300        7.88000
H         -5.01800       -0.68000        9.66100
H         -5.00300       -1.19700        7.96300
H         -5.78100       -3.38500        8.79500
H         -5.31400       -2.82000       10.38300
H         -3.26900       -2.15200        8.66000
H         -3.28400       -3.36500        9.93800
H         -3.44800       -5.03600        8.52300
H         -4.56500       -4.16500        7.48400
H         -1.04300       -2.79500        5.36600
H         -1.68700       -3.99800        4.29000
H         -3.36400       -2.42800        3.54200
H         -1.43400       -0.60800        2.81000
H         -0.51400       -2.04100        3.11400
H         -3.97300       -0.99500        0.03500
H         -3.48300        0.08400        1.32300
H         -3.06700        1.32600       -1.16500
H         -4.73600        0.69800       -1.02600
H         -6.21500        1.51500        0.52500
H         -5.69300        2.70400        1.69500
H         -5.11500        1.05900        1.80400
H         -2.30500        2.88900        0.53500
H         -2.88000        1.84400        1.81200
H         -3.45800        3.49000        1.70300
H         -5.42700        2.95000       -1.23100
H         -3.78100        3.53500       -1.19900
H         -4.93300        4.10500       -0.01600
H         -4.42500        0.10700        6.68800
H         -5.41000        0.94600        5.45700
H         -4.02400        2.51100        6.45200
H         -3.44200        2.19100        4.83400
H         -1.67500        0.95800        5.57700
H         -2.43600        0.71900        7.16800
H         -2.03900        2.97800        7.72900
H         -1.31500        3.25900        6.15300
H          0.14300        2.71900        8.26000
H         -0.27100        1.05600        7.75100
H          0.64500        2.66400        5.61100
H          1.81900        2.47800        6.95300
H          2.13900        0.89400        5.21600
H          0.50500        0.29100        5.53200
H          1.20200        0.03300        7.81600
H          2.88900        0.23500        7.04900
H          2.97700       -1.61300        7.33500
H          1.12600       -1.76300        7.28300
H          1.28900       -1.68500        4.97900
H          3.01800       -1.91800        5.14300
H          1.35400       -3.81000        6.65300
H          2.01800       -5.42000        5.20100
H          2.40500       -3.71500        3.02300
H          3.87400       -3.58400        3.98500
H          4.45000       -5.74000        3.64800
H          2.79500       -6.22800        3.30600
H          2.88300       -5.54900        1.17100
H          4.11700       -4.32700        1.52200
H          5.76600       -5.96900        1.68500
H          4.55500       -7.23300        1.45100
H          5.31000       -5.14800       -0.54900
H          4.09900       -6.38900       -0.76600
H          5.78100       -6.83000       -0.59200
