54
1ln1_DLP_model_31_chainB.pdb
C          0.11100        2.03800      -10.92000
C          1.18300        1.04900      -11.18200
C          1.98200        0.78600       -9.96700
C          3.35200        0.36700      -10.30800
C          3.38600       -1.03900      -10.69600
C          4.75600       -1.53300      -10.65300
C          5.00300       -2.77300      -10.96400
C          3.98300       -3.61900      -11.52600
C          4.01300       -4.88500      -10.90900
C          3.02600       -5.74100      -11.29600
C          2.98400       -6.99500      -10.64900
C          1.61300       -7.50900      -10.68800
C          0.84700       -6.94700       -9.57300
C         -0.32000       -6.26100      -10.08800
C         -1.15700       -5.81800       -9.00300
C         -2.15000       -4.92800       -9.51500
C         -3.20800       -4.78400       -8.54200
C         -2.80100       -3.85100       -7.49400
O         -2.77100       -2.67900       -7.67300
O         -2.49900       -4.39300       -6.33000
C         -2.24900       -3.54200       -5.24700
C         -1.35700       -4.25300       -4.28500
C         -1.33800       -3.52000       -2.98200
O         -1.78100       -4.40000       -2.02500
P         -1.57200       -4.08400       -0.51500
O         -1.56900       -2.64200       -0.29500
O         -2.55100       -4.85000        0.24600
O         -0.15800       -4.62500       -0.15200
C          0.21500       -5.84200       -0.58700
C          1.31500       -6.34600        0.25300
N          2.50300       -6.72000       -0.48400
C          2.17400       -7.73200       -1.49000
C          3.05600       -5.54500       -1.17800
C          3.47400       -7.24700        0.42300
O         -0.03900       -4.34000       -4.76300
C          0.47100       -5.58800       -4.99500
O         -0.12800       -6.53900       -4.62600
C          1.76500       -5.73400       -5.73000
C          2.74600       -4.69300       -5.47400
C          2.39500       -3.50800       -6.26200
C          3.54000       -2.55300       -6.34500
C          3.07100       -1.24000       -6.88400
C          2.85900       -0.24400       -5.82000
C          1.75600        0.67300       -6.15700
C          0.73800        0.48500       -5.21300
C         -0.52200        0.57700       -5.66900
C         -1.50500        0.46600       -4.68200
C         -2.82000        0.47900       -5.30500
C         -3.90400        0.51400       -4.61000
C         -3.93500        0.57800       -3.13600
C         -5.35100        0.67300       -2.69300
C         -5.45800        0.73300       -1.22700
C         -5.72200        2.11300       -0.75500
C         -6.12300        2.12300        0.69000
