136
1ln1_DLP_model_15_chainB_pH74.pdb
C          2.89900      -10.68200        6.50500
C          3.60000       -9.38900        6.78500
C          3.55400       -9.07100        8.20200
C          4.37100       -7.90100        8.55400
C          4.05200       -7.45400        9.90900
C          4.77700       -6.21600       10.24500
C          4.28900       -5.41900       11.15900
C          3.01100       -5.69900       11.78000
C          2.28600       -4.50000       11.99500
C          0.97800       -4.70700       12.38200
C          0.13700       -3.57900       12.48300
C         -1.25200       -4.01700       12.27700
C         -1.73800       -3.65300       10.94100
C         -1.43000       -4.69500        9.93400
C         -2.45400       -5.73500        9.89300
C         -2.33900       -6.46800        8.63800
C         -3.28900       -5.92300        7.64100
C         -2.61800       -5.79900        6.32500
O         -2.15300       -6.72900        5.76100
O         -2.61300       -4.56900        5.81700
C         -1.97500       -4.33800        4.57900
C         -1.47100       -2.93100        4.59800
C         -0.95600       -2.52800        3.23500
O         -1.76400       -1.50200        2.80800
P         -1.44400       -0.71800        1.50700
O         -0.49600       -1.46100        0.67700
O         -2.71600       -0.36900        0.87300
O         -0.74000        0.61100        1.94800
C         -0.92000        1.10800        3.18600
C         -0.25600        2.42700        3.28200
N          0.63100        2.55700        4.42000
C         -0.12100        2.38000        5.66800
C          1.69700        1.52100        4.36600
C          1.24600        3.85400        4.41000
O         -0.43800       -2.77800        5.53100
C         -0.60600       -1.82000        6.49400
O         -1.46500       -1.00600        6.38200
C          0.29300       -1.84000        7.68700
C          1.71500       -2.01200        7.34700
C          1.98400       -3.45400        7.16200
C          3.44100       -3.73500        7.01700
C          3.62900       -5.09300        6.41000
C          4.05800       -5.01700        4.99500
C          3.65000       -6.20800        4.24500
C          2.63200       -5.81600        3.34900
C          1.61100       -6.67700        3.20200
C          0.66800       -6.31700        2.23600
C         -0.33600       -7.36700        2.14100
C         -1.21600       -7.36700        1.19900
C         -1.30900       -6.30800        0.16600
C         -2.00500       -6.86700       -1.02300
C         -1.90500       -5.92500       -2.17300
C         -2.31200       -6.58800       -3.43300
C         -2.09300       -5.68700       -4.61700
H          2.94600      -10.89400        5.45700
H          1.87500      -10.60600        6.80700
H          3.37400      -11.47100        7.05000
H          3.12300       -8.60500        6.23400
H          4.62400       -9.48400        6.48900
H          3.91200       -9.91500        8.75300
H          2.53800       -8.83800        8.44500
H          4.17000       -7.10900        7.86400
H          5.40600       -8.17000        8.50900
H          4.32800       -8.22000       10.60300
H          3.00200       -7.25700        9.96300
H          5.66000       -5.98100        9.76400
H          4.82100       -4.58100       11.44100
H          3.17600       -6.18300       12.72000
H          2.44400       -6.33300       11.13000
H          2.28400       -3.93800       11.08500
H          2.77100       -3.97900       12.79400
H          1.00000       -5.17600       13.34300
H          0.55200       -5.29200       11.59300
H          0.23700       -3.13900       13.45300
H          0.40700       -2.85200       11.74600
H         -1.30100       -5.08000       12.38700
H         -1.86900       -3.53000       13.00300
H         -2.79900       -3.51800       10.98400
H         -1.24400       -2.75100       10.64500
H         -1.36500       -4.23500        8.97000
H         -0.50300       -5.15400       10.20600
H         -2.31600       -6.40700       10.71400
H         -3.42400       -5.28900        9.96200
H         -1.34100       -6.37400        8.26400
H         -2.56800       -7.49900        8.81200
H         -4.12700       -6.58200        7.55200
H         -3.62200       -4.95800        7.96100
H         -1.15900       -5.01800        4.45500
H         -2.65600       -4.48700        3.76700
H         -2.29300       -2.30400        4.87300
H          0.05900       -2.19600        3.30500
H         -0.97700       -3.35100        2.55100
H         -0.49400        0.44000        3.90500
H         -1.96600        1.21700        3.38100
H         -1.01200        3.18000        3.35700
H          0.34700        2.53500        2.40500
H         -0.57900        1.41300        5.67400
H         -0.87800        3.13300        5.73800
H          0.54500        2.46500        6.50100
H          2.25800        1.63300        3.46200
H          1.25100        0.54900        4.39100
H          2.34900        1.63600        5.20700
H          1.79400        3.98200        3.50000
H          1.91300        3.93900        5.24300
H          0.49000        4.60800        4.48000
H         -0.00400       -2.64900        8.32100
H          0.19700       -0.89000        8.17000
H          1.93600       -1.48500        6.44200
H          2.32900       -1.62300        8.13300
H          1.61200       -3.98700        8.01200
H          1.49500       -3.76900        6.26400
H          3.88600       -2.99600        6.38300
H          3.90800       -3.70600        7.97900
H          4.37400       -5.62000        6.96800
H          2.68800       -5.60100        6.44200
H          3.61600       -4.15400        4.54400
H          5.12600       -4.95500        4.97100
H          4.48400       -6.60100        3.70200
H          3.29600       -6.96900        4.90900
H          2.67000       -4.92100        2.83700
H          1.52900       -7.54000        3.76100
H          0.20000       -5.39700        2.51700
H          1.15000       -6.19000        1.28900
H         -0.34300       -8.12500        2.84100
H         -1.89200       -8.14600        1.16200
H         -1.86200       -5.47700        0.55000
H         -0.32900       -5.97500       -0.10600
H         -1.55300       -7.79900       -1.29000
H         -3.03700       -7.01500       -0.78400
H         -2.54500       -5.08600       -1.99600
H         -0.88800       -5.60500       -2.26700
H         -1.73400       -7.47900       -3.56100
H         -3.35500       -6.82000       -3.37200
H         -1.05400       -5.44400       -4.69300
H         -2.66100       -4.78900       -4.49200
H         -2.40900       -6.18700       -5.50900
