140
1ln1_DLP_model_7_chainB_pH74.pdb
C         -7.02800       -1.17700       -6.42300
C         -7.41900       -0.04500       -7.29100
C         -6.51900        1.11900       -7.12400
C         -7.00900        2.27700       -7.89800
C         -5.90200        3.21300       -8.13900
C         -6.32600        4.26900       -9.07500
C         -5.52000        4.65100      -10.03800
C         -4.47000        3.76900      -10.49200
C         -3.38100        4.50500      -11.04300
C         -2.61900        3.80200      -11.92700
C         -1.20200        3.88300      -11.87100
C         -0.68300        2.70800      -12.59100
C          0.12200        1.83900      -11.72800
C         -0.69000        1.07300      -10.76200
C         -0.86700       -0.31400      -11.17600
C         -1.20600       -1.12100      -10.01100
C          0.01800       -1.73500       -9.43900
C         -0.00300       -1.61300       -7.96600
O         -0.89200       -2.03100       -7.31500
O          1.07000       -1.01800       -7.43500
C          1.13200       -0.83400       -6.03000
C          1.75300        0.50200       -5.76900
C          2.06300        0.67800       -4.29600
O          3.35600        0.25600       -4.10500
P          4.13500        0.69100       -2.82500
O          3.37900        0.31400       -1.62600
O          5.49000        0.15400       -2.91700
O          4.23700        2.26700       -2.86300
C          4.90600        2.87000       -3.89700
C          5.23400        4.26700       -3.53000
N          4.48200        5.29500       -4.24100
C          4.62900        5.13400       -5.69300
C          3.03000        5.20200       -3.91600
C          4.95700        6.59000       -3.86300
O          0.89600        1.52600       -6.18900
C          1.42400        2.48500       -7.00700
O          2.60300        2.58500       -7.14200
C          0.47700        3.39000       -7.73600
C         -0.46000        4.09500       -6.82600
C         -1.65100        3.23800       -6.59200
C         -2.71000        3.94700       -5.79600
C         -3.74700        2.97700       -5.30500
C         -3.46400        2.48800       -3.93600
C         -3.91500        1.09300       -3.74800
C         -2.74500        0.31700       -3.70900
C         -2.82800       -1.00200       -3.86400
C         -1.82700       -1.70800       -3.20900
C         -1.62700       -3.01200       -3.82100
C         -0.83900       -3.89300       -3.28400
C         -0.18600       -3.72900       -1.97000
C          0.79500       -4.82800       -1.78800
C          1.54600       -4.66000       -0.52600
C          1.06100       -5.53700        0.53900
C          1.91400       -5.45900        1.77000
H         -7.70300       -1.99300       -6.57600
H         -7.06500       -0.87000       -5.39900
H         -6.03300       -1.48600       -6.66700
H         -7.38500       -0.36400       -8.31200
H         -8.40700        0.25900       -7.01300
H         -6.47600        1.38300       -6.08800
H         -5.54600        0.85400       -7.48200
H         -7.40000        1.93900       -8.83500
H         -7.78000        2.77300       -7.34600
H         -5.60800        3.65900       -7.21200
H         -5.07800        2.67900       -8.56400
H         -7.22500        3.92600       -9.54200
H         -6.39700        5.13700       -8.45300
H         -6.13400        4.86400      -10.88800
H         -4.98400        5.46800       -9.60100
H         -4.11700        3.19100       -9.66400
H         -4.86800        3.13200      -11.25400
H         -3.77700        5.36100      -11.54900
H         -2.74100        4.76400      -10.22500
H         -2.87400        2.77000      -11.80100
H         -2.85200        4.25800      -12.86700
H         -0.86500        4.78300      -12.34200
H         -0.85700        3.89800      -10.85800
H         -0.07500        3.04400      -13.40500
H         -1.52100        2.14000      -12.93800
H          0.81600        2.44600      -11.18500
H          0.61900        1.13200      -12.36000
H         -1.65200        1.53400      -10.67700
H         -0.17600        1.07500       -9.82300
H          0.04100       -0.67700      -11.61100
H         -1.65400       -0.37600      -11.89800
H         -1.88600       -1.89400      -10.30200
H         -1.66000       -0.49400       -9.27200
H          0.88100       -1.23300       -9.82500
H          0.05300       -2.77000       -9.70800
H          1.72800       -1.60500       -5.58800
H          0.15100       -0.87900       -5.60400
H          2.66800        0.55200       -6.32200
H          1.39300        0.08800       -3.70600
H          1.94700        1.70000       -4.00100
H          5.81000        2.33300       -4.09800
H          4.28700        2.86800       -4.77000
H          5.04700        4.38600       -2.48300
H          6.25900        4.41000       -3.80300
H          4.07100        5.89700       -6.19500
H          4.26100        4.17200       -5.98400
H          5.66200        5.21600       -5.95800
H          2.49600        5.96300       -4.44600
H          2.89100        5.33600       -2.86400
H          2.66100        4.24000       -4.20500
H          4.40200        7.34000       -4.38700
H          5.99500        6.67600       -4.11000
H          4.82900        6.72300       -2.80900
H         -0.09300        2.80400       -8.42600
H          1.06200        4.13400       -8.23500
H         -0.76600        5.01800       -7.27200
H          0.02700        4.29700       -5.89500
H         -1.34600        2.36200       -6.05800
H         -2.06800        2.98600       -7.54500
H         -3.18200        4.68100       -6.41500
H         -2.24900        4.41300       -4.95100
H         -3.77500        2.13900       -5.97000
H         -4.68500        3.49000       -5.27900
H         -3.97200        3.11400       -3.23300
H         -2.40500        2.51900       -3.78400
H         -4.53700        0.78900       -4.56400
H         -4.49200        0.98200       -2.85400
H         -2.10400        0.68200       -4.48400
H         -2.40200        0.43100       -2.70200
H         -2.76800       -1.22300       -4.90900
H         -3.75800       -1.30800       -3.43300
H         -2.10500       -1.84100       -2.18400
H         -0.91500       -1.15300       -3.28000
H         -2.12000       -3.24100       -4.69800
H         -0.65800       -4.76300       -3.80900
H         -0.92200       -3.77000       -1.19400
H          0.31200       -2.78300       -1.92500
H          1.48200       -4.82400       -2.60800
H          0.26500       -5.75700       -1.75000
H          1.45100       -3.64400       -0.20300
H          2.56600       -4.91900       -0.71900
H          1.06300       -6.54600        0.18200
H          0.07400       -5.21900        0.80300
H          2.90900       -5.77300        1.53500
H          1.50800       -6.09800        2.52600
H          1.93300       -4.45100        2.12700
