54
1ln1_DLP_model_22_chainB.pdb
C         -0.24500      -10.65900       -5.72000
C         -0.63900      -10.47500       -7.12800
C         -0.88800       -9.07300       -7.48100
C         -1.35500       -8.92800       -8.86600
C         -1.20200       -7.56300       -9.34000
C         -0.78500       -7.54000      -10.68500
C         -0.03700       -6.76800      -11.29800
C          0.59600       -5.57900      -11.18100
C          1.80900       -5.58400      -11.62600
C          2.84600       -5.04600      -11.76800
C          3.69000       -4.07000      -11.72100
C          4.95800       -4.47400      -11.11400
C          5.08200       -4.02700       -9.73400
C          4.51200       -4.96400       -8.74800
C          5.43700       -5.97200       -8.29600
C          5.02700       -6.50500       -7.00800
C          5.59500       -5.70300       -5.91600
C          4.60700       -5.48900       -4.85500
O          4.19300       -6.38100       -4.19900
O          4.23100       -4.23200       -4.67900
C          3.38900       -3.88500       -3.62500
C          2.88600       -2.49600       -3.86100
C          2.10400       -2.01000       -2.68600
O          2.76500       -0.93300       -2.18000
P          2.02700        0.12300       -1.31100
O          1.05800       -0.52800       -0.43600
O          3.04400        0.94500       -0.66000
O          1.23200        1.03900       -2.30100
C          1.85100        1.59600       -3.36200
C          1.14000        2.82500       -3.76600
N          0.54100        2.77300       -5.08800
C         -0.40400        1.63400       -5.19000
C          1.59000        2.61000       -6.11700
C         -0.17800        3.99600       -5.32400
O          2.05700       -2.41700       -4.98200
C          2.46500       -1.70700       -6.07300
O          3.58100       -1.31000       -6.15100
C          1.44700       -1.44600       -7.15500
C          0.90100       -2.67400       -7.75400
C          0.03300       -3.35000       -6.77400
C         -1.04600       -4.19000       -7.34500
C         -1.30500       -5.40700       -6.50800
C         -1.91000       -5.16100       -5.19700
C         -1.71200       -6.29400       -4.26100
C         -0.90100       -5.96000       -3.27800
C          0.05300       -6.50200       -2.65800
C          0.60100       -5.99500       -1.53500
C          1.62400       -6.80300       -0.97400
C          2.15700       -6.59000        0.16200
C          1.98400       -5.46700        1.04900
C          2.37800       -5.77800        2.43100
C          2.26400       -4.58700        3.29000
C          2.04600       -4.91300        4.69500
C          2.02700       -3.69700        5.56500
