136
1ln1_DLP_model_18_chainB_pH74.pdb
C         -8.21800        4.08900        7.27200
C         -7.87300        5.50600        7.06300
C         -6.51700        5.68400        6.51700
C         -6.08800        7.08400        6.63500
C         -5.21100        7.47800        5.53000
C         -4.87200        8.89400        5.64400
C         -4.92600        9.71900        4.64700
C         -5.43100        9.41900        3.32400
C         -5.60500       10.65600        2.62000
C         -6.09900       10.83100        1.42200
C         -5.99700        9.94000        0.30000
C         -7.26600        9.97100       -0.41700
C         -7.46100        8.75800       -1.16200
C         -7.71600        7.60600       -0.27300
C         -9.12900        7.44000        0.01000
C         -9.34500        6.14200        0.64000
C         -9.50100        5.08000       -0.38600
C         -8.67000        3.90800       -0.03100
O         -8.79000        3.35500        1.00900
O         -7.80200        3.50400       -0.96800
C         -6.95900        2.39900       -0.70100
C         -5.63500        2.59700       -1.38900
C         -4.81200        1.33800       -1.31900
O         -4.80700        0.77800       -2.57200
P         -3.70900       -0.25900       -2.96100
O         -3.48600       -1.19800       -1.86100
O         -4.09300       -0.85400       -4.24000
O         -2.37100        0.54000       -3.17800
C         -2.35700        1.65000       -3.96300
C         -0.95100        1.98700       -4.31500
N         -0.47800        3.26200       -3.80000
C         -1.30500        4.35900       -4.31400
C         -0.54000        3.29300       -2.32700
C          0.88500        3.46400       -4.20700
O         -4.88100        3.62000       -0.79500
C         -4.56500        4.71000       -1.55500
O         -5.09100        4.88500       -2.60600
C         -3.53200        5.66400       -1.01000
C         -3.91300        6.17800        0.31900
C         -3.38100        5.27800        1.35900
C         -3.87700        5.65700        2.71300
C         -3.17700        4.96500        3.83700
C         -3.30000        3.49500        3.82600
C         -4.59500        2.99300        4.30400
C         -4.84100        1.74700        3.68800
C         -6.09100        1.30500        3.51100
C         -6.26700        0.18300        2.69600
C         -7.68100       -0.06100        2.47800
C         -8.14200       -1.12700        1.92200
C         -7.33000       -2.26500        1.44500
C         -8.23000       -3.32200        0.90300
C         -7.46000       -4.42400        0.26100
C         -7.19300       -5.53400        1.19500
C         -6.61800       -6.73300        0.49700
H         -9.20900        4.01800        7.66800
H         -7.52600        3.65100        7.96100
H         -8.16900        3.56800        6.33800
H         -8.57700        5.93300        6.37900
H         -7.90500        5.99100        8.01600
H         -5.83600        5.06100        7.05900
H         -6.52500        5.41300        5.48200
H         -6.95400        7.71300        6.63200
H         -5.54100        7.18900        7.54800
H         -4.31400        6.89500        5.56400
H         -5.71700        7.31100        4.60200
H         -4.57500        9.25500        6.56400
H         -4.57800       10.67700        4.81100
H         -4.73200        8.80000        2.80100
H         -6.36300        8.89900        3.39300
H         -6.22500       11.24900        3.26000
H         -4.57800       10.87100        2.40800
H         -7.15000       10.96000        1.57500
H         -5.44500       11.60700        1.08200
H         -5.20700       10.26000       -0.34700
H         -5.78300        8.94600        0.63300
H         -8.06400       10.08200        0.28700
H         -7.25400       10.79500       -1.10000
H         -6.58300        8.56200       -1.74100
H         -8.31500        8.88800       -1.79300
H         -7.19500        7.75900        0.64900
H         -7.37300        6.72300       -0.77000
H         -9.68500        7.49100       -0.90300
H         -9.45700        8.21700        0.66900
H         -8.50600        5.90900        1.26200
H        -10.23900        6.18800        1.22600
H        -10.52800        4.78400       -0.43600
H         -9.18600        5.46000       -1.33500
H         -6.80300        2.31700        0.35400
H         -7.41900        1.50400       -1.06600
H         -5.85800        2.85800       -2.40200
H         -3.81200        1.57200       -1.01900
H         -5.22500        0.65700       -0.60400
H         -2.91400        1.46200       -4.85700
H         -2.80000        2.46800       -3.43400
H         -0.87200        2.01000       -5.38200
H         -0.34000        1.23500       -3.86000
H         -1.27600        4.35700       -5.38400
H         -0.92800        5.29100       -3.94900
H         -2.31500        4.22900       -3.98500
H         -1.55100        3.14400       -2.00900
H         -0.19200        4.24200       -1.97500
H          0.07800        2.51600       -1.92800
H          0.94500        3.44400       -5.27500
H          1.49800        2.68600       -3.80100
H          1.22800        4.41200       -3.84800
H         -3.43100        6.48800       -1.68500
H         -2.60800        5.13400       -0.91100
H         -4.98000        6.22000        0.39400
H         -3.51000        7.16000        0.45300
H         -2.31200        5.33200        1.35200
H         -3.71300        4.28300        1.14500
H         -4.91800        5.41800        2.76800
H         -3.68600        6.70300        2.82900
H         -3.58500        5.32700        4.75700
H         -2.13500        5.18300        3.72500
H         -2.53200        3.09000        4.45100
H         -3.21000        3.18800        2.80500
H         -4.56600        2.87200        5.36700
H         -5.37300        3.68600        4.05900
H         -4.04700        1.17000        3.37000
H         -6.89400        1.77400        3.95900
H         -5.78800        0.35200        1.75400
H         -5.83600       -0.67000        3.17800
H         -8.35300        0.65900        2.78500
H         -9.16500       -1.19200        1.79900
H         -6.66600       -1.93200        0.67500
H         -6.76000       -2.66300        2.25800
H         -8.81200       -3.72700        1.70500
H         -8.85800       -2.87700        0.16000
H         -6.52600       -4.03500       -0.08700
H         -8.04700       -4.80800       -0.54700
H         -8.11100       -5.81700        1.66700
H         -6.47600       -5.19500        1.91300
H         -7.31700       -7.09300       -0.22900
H         -6.42100       -7.50200        1.21400
H         -5.70600       -6.45800        0.00900
