54
1ln1_DLP_model_35_chainB.pdb
C          9.78000       -3.02400        5.18800
C          9.34200       -2.71400        6.55300
C          7.88700       -2.61600        6.67500
C          7.50500       -2.49500        8.08900
C          6.06300       -2.61600        8.22700
C          5.65800       -2.63000        9.62900
C          4.74700       -3.47400       10.05300
C          4.71400       -4.82900        9.57700
C          3.39700       -5.24700        9.29500
C          3.23600       -6.60000        9.17700
C          1.99300       -7.09300        8.73600
C          2.23100       -8.26600        7.89500
C          2.00500       -7.97700        6.47700
C          3.19400       -7.39400        5.84400
C          3.92900       -8.35000        5.05700
C          4.81100       -7.62700        4.16600
C          4.45100       -7.89900        2.77400
C          4.44500       -6.64400        2.00800
O          5.43200       -6.02900        1.79600
O          3.26300       -6.28900        1.54300
C          3.15300       -5.08800        0.80600
C          1.81800       -4.50900        1.11900
C          1.51400       -3.32300        0.23700
O          0.66300       -3.78600       -0.73000
P         -0.17900       -2.77700       -1.56400
O          0.68200       -1.70100       -2.05600
O         -0.90500       -3.54100       -2.57400
O         -1.23200       -2.14500       -0.58300
C         -2.05800       -2.96500        0.12900
C         -3.21700       -2.19200        0.61500
N         -3.20700       -1.90900        2.04100
C         -3.22100       -3.15800        2.81200
C         -1.99100       -1.14300        2.40900
C         -4.35700       -1.12200        2.39000
O          1.75800       -4.10900        2.45100
C          0.72500       -4.61000        3.18800
O         -0.17200       -5.16600        2.65100
C          0.76600       -4.45900        4.66800
C          1.09900       -3.10100        5.10700
C          2.56300       -2.98700        5.20000
C          2.98700       -1.65300        5.68400
C          4.44300       -1.47200        5.43500
C          4.72500       -0.32500        4.57300
C          5.92000       -0.53700        3.75900
C          5.50700       -0.91500        2.47100
C          6.21200       -1.85900        1.85700
C          5.86900       -2.08900        0.52800
C          6.72500       -3.11700       -0.02800
C          6.67700       -3.45800       -1.26500
C          5.73500       -2.88600       -2.24000
C          6.32500       -2.97400       -3.59300
C          5.43300       -2.35200       -4.59400
C          6.16700       -2.00500       -5.81700
C          5.26600       -1.46600       -6.87700
