136
1ln1_DLP_model_14_chainB_pH74.pdb
C         -3.61900        6.43900        6.89800
C         -3.12400        7.81200        6.68500
C         -1.83400        7.83300        5.96700
C         -1.19700        9.16100        6.06200
C         -0.25400        9.40100        4.95000
C          0.25100       10.76800        5.00200
C          0.39100       11.53000        3.93800
C          0.23500       11.10500        2.56400
C         -1.10200       11.32700        2.16300
C         -1.49300       11.87800        1.07100
C         -1.03400       11.71300       -0.25900
C         -2.21100       11.86100       -1.10200
C         -2.58500       10.64100       -1.83000
C         -3.00400        9.52900       -0.95400
C         -4.43800        9.47800       -0.71200
C         -4.72800        8.38200        0.20000
C         -5.51300        7.31800       -0.44800
C         -5.00000        6.00300       -0.03800
O         -5.34900        5.50100        0.97700
O         -4.15100        5.41900       -0.87700
C         -3.63600        4.14400       -0.57600
C         -2.37400        3.94900       -1.33000
C         -1.87200        2.54400       -1.16600
O         -1.65700        2.05600       -2.42100
P         -0.88600        0.73200       -2.65700
O         -0.70000        0.00200       -1.41500
O         -1.56500        0.00800       -3.72600
O          0.53900        1.14500       -3.16700
C          0.76400        2.33100       -3.74900
C          2.11100        2.33200       -4.35800
N          2.90700        3.51000       -4.07800
C          3.04300        3.71200       -2.62700
C          2.26400        4.70500       -4.64100
C          4.20300        3.35800       -4.65900
O         -1.36200        4.81400       -0.90100
C         -0.83200        5.70100       -1.79700
O         -1.31500        5.80600       -2.87500
C          0.37400        6.50000       -1.38800
C          0.21900        7.25600       -0.14000
C          0.24000        6.34600        1.01900
C          1.07200        6.81700        2.15200
C          0.60100        6.27500        3.46800
C          0.64600        4.81400        3.58400
C         -0.40600        4.29900        4.49100
C         -1.05500        3.23500        3.87200
C         -2.33400        3.27100        3.53000
C         -2.90700        2.06300        3.16800
C         -4.25700        2.21500        2.66000
C         -4.94600        1.18500        2.27000
C         -4.42500       -0.19700        2.29300
C         -5.41800       -1.14300        1.73800
C         -4.76000       -2.39200        1.29500
C         -5.35700       -3.58700        1.87900
C         -4.71100       -4.84600        1.39400
H         -4.55200        6.47300        7.42000
H         -2.90700        5.88900        7.47700
H         -3.75700        5.95900        5.95200
H         -3.84700        8.35400        6.11200
H         -2.97400        8.26000        7.64500
H         -1.18300        7.10100        6.39700
H         -2.01500        7.61500        4.93500
H         -1.95800        9.91200        6.03800
H         -0.64600        9.19900        6.97800
H          0.56600        8.71800        5.02900
H         -0.76500        9.25300        4.02200
H          0.51200       11.15800        5.92100
H          0.63400       12.52000        4.09800
H          0.89600       11.66700        1.93700
H          0.47000       10.06500        2.47800
H         -1.55600       10.35800        2.16300
H         -1.36700       12.10000        2.85400
H         -2.53400       11.63500        1.01700
H         -1.06300       12.84200        1.24400
H         -0.30700       12.46100       -0.49800
H         -0.56400       10.76200       -0.40000
H         -3.03400       12.14800       -0.48200
H         -1.97200       12.59900       -1.83900
H         -1.74100       10.31900       -2.40400
H         -3.42700       10.88900       -2.44200
H         -2.50700        9.63600       -0.01300
H         -2.74100        8.62200       -1.45600
H         -4.95200        9.32000       -1.63700
H         -4.76400       10.40200       -0.28100
H         -5.28300        8.76300        1.03200
H         -3.79700        7.96000        0.51600
H         -6.53900        7.40600       -0.15700
H         -5.43100        7.41400       -1.51000
H         -3.44200        4.07300        0.47400
H         -4.34500        3.39100       -0.85200
H         -2.60300        4.15500       -2.35500
H         -0.95900        2.54100       -0.60800
H         -2.57900        1.94200       -0.63500
H          0.02900        2.50100       -4.50800
H          0.70400        3.10700       -3.01400
H          2.64200        1.47800       -3.99200
H          1.96100        2.31600       -5.41700
H          3.63300        4.58500       -2.44200
H          3.52100        2.86000       -2.19200
H          2.07400        3.83800       -2.19200
H          2.15200        4.58500       -5.69800
H          2.87000        5.56400       -4.44100
H          1.30100        4.83600       -4.19300
H          4.10600        3.21100       -5.71400
H          4.69200        2.51100       -4.22400
H          4.78300        4.23800       -4.47300
H          0.59500        7.19400       -2.17200
H          1.15800        5.79300       -1.21600
H         -0.71300        7.78100       -0.15900
H          1.03000        7.94900       -0.05100
H          0.62100        5.40000        0.69500
H         -0.76500        6.28900        1.38100
H          1.03300        7.88600        2.18600
H          2.07000        6.46700        1.99200
H         -0.41100        6.58900        3.61400
H          1.27300        6.65600        4.20800
H          1.60300        4.52700        3.96600
H          0.47800        4.39900        2.61200
H         -1.11100        5.07600        4.70100
H          0.03600        3.96900        5.40800
H         -0.51500        2.37900        3.67000
H         -2.87400        4.15100        3.53300
H         -2.30400        1.61200        2.40800
H         -2.95800        1.45300        4.04600
H         -4.67700        3.15600        2.60800
H         -5.90700        1.34000        1.92600
H         -3.53000       -0.24400        1.70800
H         -4.22200       -0.47000        3.30800
H         -6.14100       -1.37500        2.49200
H         -5.89400       -0.68700        0.89500
H         -3.72900       -2.35300        1.57700
H         -4.88100       -2.45900        0.23400
H         -6.39500       -3.61300        1.62100
H         -5.21600       -3.53600        2.93800
H         -4.83600       -4.92600        0.33400
H         -5.16800       -5.68800        1.87100
H         -3.66700       -4.82500        1.63000
