136
1ln1_DLP_model_19_chainB_pH74.pdb
C         -5.14000       10.14900        2.52400
C         -3.75300       10.57700        2.82500
C         -3.22300        9.97100        4.05100
C         -2.44200       10.92700        4.84900
C         -1.01500       10.59100        4.84600
C         -0.28700       11.47500        5.75900
C          0.97200       11.77400        5.56800
C          1.75700       11.37500        4.40900
C          2.93600       12.19900        4.34100
C          3.86400       12.16900        3.40900
C          4.21900       11.02600        2.60700
C          4.48000       11.48500        1.24800
C          4.31500       10.41200        0.29500
C          2.90500        9.95500        0.24100
C          2.16700       10.59000       -0.83300
C          0.90900        9.87800       -1.02600
C          1.04300        8.85500       -2.09800
C          0.24900        7.65600       -1.75200
O         -0.93200        7.65100       -1.82800
O          0.96200        6.60100       -1.35700
C          0.31400        5.36800       -1.10700
C          1.33300        4.42400       -0.54900
C          0.76200        3.04200       -0.37000
O          1.71800        2.15700       -0.84500
P          1.76400        0.67400       -0.35700
O          0.44000        0.21400        0.04900
O          2.43400       -0.11900       -1.39000
O          2.67800        0.68600        0.91700
C          3.90900        1.25000        0.85000
C          4.81600        0.54200        1.79100
N          5.18700        1.32600        2.96900
C          5.92800        2.52900        2.56500
C          3.97700        1.75100        3.70900
C          6.00300        0.52700        3.84000
O          1.79800        4.85000        0.70600
C          3.06500        5.37300        0.79100
O          3.71800        5.55500       -0.18800
C          3.59000        5.69000        2.17100
C          2.88200        6.83500        2.78200
C          1.60800        6.34700        3.33600
C          1.11700        7.14200        4.49800
C         -0.38100        7.27400        4.46400
C         -1.10200        5.98500        4.59700
C         -2.46100        6.05400        3.99000
C         -2.56100        5.10500        2.94600
C         -3.05800        5.48400        1.73900
C         -3.20300        4.48900        0.75000
C         -3.57900        5.08000       -0.53500
C         -3.92300        4.36600       -1.56900
C         -4.04300        2.88300       -1.57700
C         -4.21000        2.39100       -2.97400
C         -4.07000        0.89900       -3.05700
C         -5.37400        0.21800       -3.06400
C         -5.23700       -1.27000       -3.25600
H         -5.47100       10.62100        1.62300
H         -5.78300       10.43000        3.33100
H         -5.16700        9.08600        2.40100
H         -3.74100       11.64100        2.93700
H         -3.13400       10.25500        2.01400
H         -2.59300        9.14800        3.78400
H         -4.05300        9.64900        4.64400
H         -2.80000       10.91300        5.85700
H         -2.55900       11.89900        4.41700
H         -0.62600       10.70700        3.85600
H         -0.89300        9.57800        5.16900
H         -0.78000       11.87200        6.57400
H          1.44400       12.33500        6.29400
H          2.04100       10.34800        4.50300
H          1.17700       11.49600        3.51800
H          2.57100       13.20500        4.33600
H          3.49100       11.77800        5.15300
H          3.58300       12.92800        2.70800
H          4.74000       12.24400        4.01900
H          5.09600       10.56100        3.00700
H          3.42200       10.31200        2.60900
H          3.79700       12.27300        1.00800
H          5.49000       11.83300        1.19500
H          4.60700       10.75800       -0.67400
H          4.92600        9.58900        0.60200
H          2.89100        8.89600        0.09000
H          2.43700       10.22100        1.16500
H          1.96700       11.61000       -0.57800
H          2.74200       10.56200       -1.73500
H          0.63500        9.39500       -0.11200
H          0.15600       10.58200       -1.31400
H          0.68800        9.26100       -3.02200
H          2.07200        8.58000       -2.19500
H         -0.08600        4.97500       -2.01800
H         -0.49200        5.50100       -0.41600
H          2.13700        4.40600       -1.25500
H          0.56600        2.85400        0.66500
H         -0.16200        2.93400       -0.89800
H          3.84600        2.28300        1.12100
H          4.28900        1.17200       -0.14700
H          5.71100        0.28300        1.26400
H          4.28300       -0.31500        2.14700
H          5.31800        3.12200        1.91600
H          6.82100        2.24200        2.05100
H          6.18400        3.09900        3.43400
H          3.36000        2.34800        3.07100
H          4.26500        2.32500        4.56500
H          3.43100        0.88700        4.02700
H          6.88200        0.21300        3.31700
H          5.45000       -0.33300        4.15700
H          6.28500        1.10500        4.69500
H          4.63100        5.92600        2.09900
H          3.43000        4.83300        2.79100
H          2.69200        7.58100        2.03900
H          3.48000        7.26800        3.55700
H          1.74300        5.33400        3.65300
H          0.87500        6.43800        2.56200
H          1.55500        8.11800        4.46500
H          1.39500        6.63700        5.39900
H         -0.65900        7.72000        3.53200
H         -0.65900        7.87300        5.30600
H         -0.54000        5.22000        4.10400
H         -1.21100        5.76700        5.63900
H         -3.19600        5.84100        4.73700
H         -2.62600        7.03500        3.59600
H         -2.25800        4.13000        3.10000
H         -3.32000        6.46500        1.55300
H         -2.27500        3.96900        0.63800
H         -3.97600        3.81400        1.05500
H         -3.57100        6.10800       -0.62600
H         -4.12800        4.86600       -2.44800
H         -3.15900        2.45400       -1.15400
H         -4.89800        2.59700       -1.00000
H         -5.18200        2.66800       -3.32600
H         -3.44400        2.83200       -3.57700
H         -3.54700        0.65200       -3.95700
H         -3.53300        0.57100       -2.19200
H         -5.86400        0.40100       -2.13100
H         -5.94200        0.60400       -3.88400
H         -4.67100       -1.68300       -2.44700
H         -4.73400       -1.46600       -4.18000
H         -6.20900       -1.71800       -3.27700
