54
1ln1_DLP_model_41_chainB.pdb
C         -0.06400       -2.11700      -12.70500
C          1.00100       -2.22400      -11.65800
C          1.84000       -3.39000      -11.86400
C          2.96200       -3.49800      -10.92300
C          3.61800       -4.80100      -11.06100
C          4.65400       -5.04700      -10.03400
C          4.69900       -6.20300       -9.40300
C          3.59800       -7.12700       -9.49300
C          3.78800       -8.25800       -8.64100
C          2.63300       -8.94800       -8.37200
C          2.58900      -10.01400       -7.47800
C          1.19700      -10.42900       -7.23400
C          0.39400       -9.37400       -6.59000
C         -0.28100       -8.56500       -7.60800
C         -1.59300       -8.14400       -7.19700
C         -2.08000       -7.14800       -8.11300
C         -3.36900       -6.65100       -7.63600
C         -3.20600       -5.29100       -7.08100
O         -3.25200       -4.34500       -7.78000
O         -3.04200       -5.19300       -5.76000
C         -2.97100       -3.89600       -5.18100
C         -2.03900       -3.94100       -4.01100
C         -1.98100       -2.59700       -3.30700
O         -2.79900       -2.68700       -2.19600
P         -2.63900       -1.67000       -1.02700
O         -2.65000       -0.30300       -1.55300
O         -3.64800       -1.97500       -0.01900
O         -1.22700       -1.92000       -0.38200
C         -0.91100       -3.16300        0.08700
C          0.17500       -3.04700        1.08200
N          1.48100       -3.49400        0.62300
C          1.44700       -4.92000        0.31400
C          1.87600       -2.76400       -0.60400
C          2.46100       -3.23900        1.63700
O         -0.74600       -4.27000       -4.43300
C         -0.13700       -5.33100       -3.82400
O         -0.58600       -5.78500       -2.82500
C          1.08400       -5.91500       -4.45400
C          2.14700       -4.93600       -4.73700
C          1.77600       -4.15900       -5.93700
C          2.94700       -3.59400       -6.64700
C          2.90200       -2.10500       -6.71100
C          1.95700       -1.57800       -7.69600
C          0.86100       -0.83000       -7.07700
C          0.00300       -0.34400       -8.10400
C         -1.27900       -0.59300       -8.18200
C         -2.20400       -0.29500       -7.15500
C         -3.52100       -0.79000       -7.56200
C         -4.65300       -0.40500       -7.06100
C         -4.79800        0.55000       -5.94400
C         -6.17100        1.12600       -5.95600
C         -6.42600        1.91800       -4.73000
C         -7.44800        2.94900       -4.94100
C         -7.72200        3.72800       -3.68400
