136
1ln1_DLP_model_12_chainB_pH74.pdb
C          9.20500       -0.65900       -5.39500
C          8.26900       -1.62300       -4.73300
C          8.75000       -3.00000       -4.84300
C          7.80900       -3.97800       -4.32000
C          8.31700       -5.34300       -4.47200
C          7.24700       -6.29000       -4.47900
C          6.86300       -6.68900       -5.71900
C          5.63900       -7.40700       -5.84100
C          5.22700       -7.35200       -7.18200
C          3.91400       -7.66500       -7.41600
C          3.46700       -7.66900       -8.72000
C          2.13500       -7.07900       -8.78300
C          2.13700       -5.80600       -9.50600
C          2.59500       -4.69100       -8.65100
C          2.90400       -3.54600       -9.48000
C          3.42100       -2.47500       -8.65900
C          2.68900       -1.23000       -8.96300
C          2.43900       -0.50200       -7.71800
O          3.23900        0.25500       -7.28600
O          1.26400       -0.73900       -7.12400
C          0.92000        0.02200       -5.98600
C         -0.07500       -0.74300       -5.16400
C         -0.47700        0.04300       -3.94700
O         -1.81700        0.33100       -4.06600
P         -2.66000        0.75000       -2.81400
O         -1.88100        1.63000       -1.94500
O         -3.93000        1.29100       -3.29700
O         -2.96600       -0.57300       -2.02300
C         -3.52400       -1.62100       -2.67800
C         -4.17900       -2.52000       -1.70800
N         -3.55900       -3.83700       -1.58700
C         -3.48100       -4.49700       -2.90200
C         -2.18200       -3.70500       -1.04600
C         -4.33800       -4.64400       -0.69900
O          0.45300       -1.96100       -4.71300
C         -0.15000       -3.11500       -5.12400
O         -0.96700       -3.09100       -5.98900
C          0.24200       -4.39700       -4.43500
C          1.68500       -4.68400       -4.54800
C          2.40100       -3.89100       -3.52700
C          3.65300       -4.54100       -3.05700
C          4.75000       -3.53400       -2.88300
C          4.49000       -2.55600       -1.80600
C          5.20700       -1.27400       -2.03600
C          4.24300       -0.26800       -2.22300
C          4.45000        0.61400       -3.21100
C          3.49300        1.63900       -3.32500
C          3.81900        2.48000       -4.46800
C          3.19400        3.59100       -4.71300
C          2.05100        4.09100       -3.91000
C          1.95300        5.56700       -4.05000
C          0.85500        6.11400       -3.21100
C          0.95600        7.56900       -3.04600
C         -0.17200        8.11000       -2.21000
H          8.82200        0.33500       -5.29500
H          9.29400       -0.90400       -6.43300
H         10.16700       -0.71900       -4.93000
H          7.30900       -1.55200       -5.20000
H          8.20700       -1.37100       -3.69500
H          9.66700       -3.08500       -4.29800
H          8.88100       -3.20900       -5.88400
H          6.88400       -3.89000       -4.85100
H          7.66800       -3.78500       -3.27700
H          8.85500       -5.41600       -5.39400
H          8.96000       -5.56100       -3.64500
H          7.56000       -7.15400       -3.93100
H          6.40300       -5.80200       -4.03800
H          6.77800       -5.81000       -6.32400
H          7.61500       -7.38900       -6.01900
H          5.78700       -8.42600       -5.54900
H          4.89300       -6.97400       -5.20800
H          5.87300       -7.09200       -7.94400
H          3.27600       -7.89200       -6.63700
H          4.13800       -7.09900       -9.32800
H          3.42600       -8.67600       -9.07800
H          1.47800       -7.76000       -9.28300
H          1.80700       -6.89200       -7.78200
H          1.14300       -5.59800       -9.84400
H          2.81300       -5.89300      -10.33100
H          3.47100       -4.99000       -8.11400
H          1.82300       -4.43200       -7.95700
H          3.63800       -3.82200      -10.20800
H          2.01400       -3.21600       -9.97400
H          4.46200       -2.33700       -8.86500
H          3.29400       -2.72200       -7.62600
H          1.75700       -1.46800       -9.43200
H          3.27200       -0.62300       -9.62400
H          0.49000        0.95200       -6.29400
H          1.79700        0.21400       -5.40300
H         -0.91700       -0.92200       -5.80000
H          0.08800        0.95000       -3.89400
H         -0.29000       -0.51900       -3.05600
H         -2.76300       -2.15800       -3.20400
H         -4.25200       -1.25800       -3.37300
H         -5.19600       -2.65600       -2.01200
H         -4.08800       -2.05200       -0.75000
H         -2.89900       -3.89600       -3.56900
H         -4.46700       -4.61800       -3.29900
H         -3.02000       -5.45700       -2.79300
H         -1.59500       -3.10200       -1.70700
H         -1.73800       -4.67500       -0.96000
H         -2.22000       -3.24300       -0.08200
H         -5.33100       -4.74200       -1.08500
H         -4.37400       -4.18100        0.26500
H         -3.89200       -5.61300       -0.61300
H         -0.30400       -5.20400       -4.87700
H          0.01400       -4.28900       -3.39500
H          2.03200       -4.41400       -5.52400
H          1.86500       -5.72800       -4.39500
H          1.75300       -3.75300       -2.68700
H          2.67400       -2.96100       -3.97900
H          3.95900       -5.27100       -3.77700
H          3.46200       -5.00300       -2.11100
H          4.86900       -3.00100       -3.80300
H          5.63200       -4.07500       -2.61000
H          4.81500       -2.97200       -0.87500
H          3.44000       -2.35100       -1.79100
H          5.81600       -1.04100       -1.18800
H          5.83900       -1.34900       -2.89600
H          3.40600       -0.21100       -1.62200
H          5.26000        0.54600       -3.84700
H          2.52300        1.20800       -3.46400
H          3.49500        2.23100       -2.43400
H          4.57400        2.18200       -5.10600
H          3.51100        4.16000       -5.51400
H          2.20200        3.84000       -2.88100
H          1.14600        3.64000       -4.25900
H          1.76300        5.80900       -5.07500
H          2.87600        6.00000       -3.72600
H          0.89700        5.65400       -2.24600
H         -0.07100        5.90300       -3.70300
H          0.92600        8.03100       -4.01100
H          1.87700        7.78700       -2.54700
H         -1.10400        7.90300       -2.69200
H         -0.05700        9.16800       -2.09700
H         -0.15700        7.64400       -1.24700
